2024-10-27T22:49:49,848  INFO Gbl:64 JVM: 21.0.3; BellSoft; mixed mode, sharing; 64-bit
2024-10-27T22:49:49,848  INFO Gbl:68 OS: Windows 11; 10.0; amd64
2024-10-27T22:49:49,849  INFO Gbl:71 CPU cores: 22
2024-10-27T22:49:49,851  INFO Gbl:72 max. Memory: 8044.0MB (8434745344B)
2024-10-27T22:49:49,852  INFO Gbl:114 MATSim-Build: ree04702ba7fc026b6bdf5a6ea52a749cf0c790e1 (2024-04-13 15:48:32)
2024-10-27T22:49:49,852  INFO Gbl:76 Command: freight_emission.RunFreightEmissionScenario
2024-10-27T22:49:49,855  INFO ControlerListenerManagerImpl:112 calling notifyStartup on org.matsim.core.controler.ControlerDefaultsModule$1 with priority 0.0
2024-10-27T22:49:49,855  INFO MemoryObserver:42 used RAM: 612 MB  free: 307 MB  total: 920 MB
2024-10-27T22:49:49,891  INFO ControlerListenerManagerImpl:112 calling notifyStartup on org.matsim.guice.DependencyGraphControlerListener with priority 0.0
2024-10-27T22:49:49,960  INFO ControlerListenerManagerImpl:112 calling notifyStartup on org.matsim.counts.CountsControlerListener with priority 0.0
2024-10-27T22:49:49,961  INFO ControlerListenerManagerImpl:112 calling notifyStartup on org.matsim.analysis.ModeStatsControlerListener with priority 0.0
2024-10-27T22:49:49,961  INFO ControlerListenerManagerImpl:112 calling notifyStartup on org.matsim.analysis.ScoreStatsControlerListener with priority 0.0
2024-10-27T22:49:49,962  INFO ControlerListenerManagerImpl:112 calling notifyStartup on org.matsim.freight.carriers.usecases.analysis.CarrierScoreStats with priority 0.0
2024-10-27T22:49:49,962  INFO ControlerListenerManagerImpl:115 all ControlerStartupListeners called.
2024-10-27T22:49:49,963  INFO ControlerUtils:79 config dump before iterations start
2024-10-27T22:49:49,975  INFO ControlerUtils:83 

<?xml version="1.0" encoding="UTF-8"?>
<!DOCTYPE config SYSTEM "http://www.matsim.org/files/dtd/config_v2.dtd">
<config>
	<module name="changeMode" >
		<!-- Defines whether car availability is considered be considered or not. An agent has no car only if it has no license, or never access to a car. Default: true -->
		<param name="ignoreCarAvailability" value="true" />
		<!-- Defines the mode switch behavior. Possible values [fromAllModesToSpecifiedModes, fromSpecifiedModesToSpecifiedModes] Default: fromSpecifiedModesToSpecifiedModes. -->
		<param name="modeSwitchBehavior" value="fromSpecifiedModesToSpecifiedModes" />
		<!-- Defines all the modes available, including chain-based modes, seperated by commas -->
		<param name="modes" value="car,pt" />
	</module>
	<module name="controller" >
		<!-- Defines what should be done with the ITERS directory when a simulation finished successfully -->
		<param name="cleanItersAtEnd" value="keep" />
		<!-- Compression algorithm to use when writing out data to files. Possible values: [none, gzip, lz4, zst] -->
		<param name="compressionType" value="gzip" />
		<!-- Sets the interval in which graphs are generated. Default is 1. If set to 0, no graphs are generated. The generation of graphs usually takes a small amount of time that does not have any weight in big simulations, but add a significant overhead in smaller runs or in test cases where the graphical output is not even requested. -->
		<param name="createGraphsInterval" value="1" />
		<!-- Defines when the scoring functions for the population are created. Default=IterationStarts. Possible values: [IterationStarts, BeforeMobsim] -->
		<param name="createScoringFunctionType" value="IterationStarts" />
		<!-- true if at the end of a run, plans, network, config etc should be dumped to a file -->
		<param name="dumpDataAtEnd" value="true" />
		<!-- Default=false. If enabled, the router takes travel times needed for turning moves into account. Can only be used with Dijkstra routing. Cannot be used when TravelTimeCalculator.separateModes is enabled. -->
		<param name="enableLinkToLinkRouting" value="false" />
		<!-- Default=xml; Specifies the file format for writing events. Currently supported: [xml, pb, json]
		Multiple values can be specified separated by commas (','). -->
		<param name="eventsFileFormat" value="xml" />
		<!-- Default=0. First Iteration of a simulation. -->
		<param name="firstIteration" value="0" />
		<!-- Default=1000. Last Iteration of a simulation. -->
		<param name="lastIteration" value="5" />
		<!-- Defines the interval for printing memory usage to the log in [seconds]. Must be positive. Defaults to 60. -->
		<param name="memoryObserverInterval" value="60" />
		<!-- Defines which mobility simulation will be used. Currently supported: [qsim, JDEQSim, hermes]
		Depending on the chosen mobsim, you'll have to add additional config modules to configure the corresponding mobsim.
		For 'qsim', add a module 'qsim' to the config. -->
		<param name="mobsim" value="qsim" />
		<param name="outputDirectory" value="../../data/intermediate/test/freight_emission/outputs/" />
		<!-- Possible values: failIfDirectoryExists,overwriteExistingFiles,deleteDirectoryIfExists -->
		<param name="overwriteFiles" value="failIfDirectoryExists" />
		<!-- The type of routing (least cost path) algorithm used, may have the values: [Dijkstra, AStarLandmarks, SpeedyALT] -->
		<param name="routingAlgorithmType" value="SpeedyALT" />
		<!-- An identifier for the current run which is used as prefix for output files and mentioned in output xml files etc. -->
		<param name="runId" value="null" />
		<!-- Comma-separated list of visualizer output file formats. `transims' and `otfvis'. -->
		<param name="snapshotFormat" value="" />
		<!-- iterationNumber % writeEventsInterval == 0 defines in which iterations events are written to a file. `0' disables events writing completely. -->
		<param name="writeEventsInterval" value="5" />
		<!-- iterationNumber % writePlansInterval == 0 defines (hopefully) in which iterations plans are written to a file. `0' disables plans writing completely.  Some plans in early iterations are always written -->
		<param name="writePlansInterval" value="5" />
		<!-- iterationNumber % writeSnapshotsInterval == 0 defines in which iterations snapshots are written to a file. `0' disables snapshots writing completely -->
		<param name="writeSnapshotsInterval" value="1" />
		<!-- iterationNumber % writeEventsInterval == 0 defines in which iterations trips CSV are written to a file. `0' disables trips writing completely. -->
		<param name="writeTripsInterval" value="5" />
	</module>
	<module name="counts" >
		<!-- Transport modes that will be respected for the counts comparison. 'car' is default, which includes also bussed from the pt simulation module. Use this parameter in combination with 'filterModes' = true! -->
		<param name="analyzedModes" value="car" />
		<!-- Specifies over how many iterations the link volumes should be averaged that are used for the counts comparison. Use 1 or 0 to only use the link volumes of a single iteration. This values cannot be larger than the value specified for writeCountsInterval -->
		<param name="averageCountsOverIterations" value="5" />
		<!-- factor by which to re-scale the simulated values.  necessary when simulation runs with something different from 100%.  needs to be adapted manually -->
		<param name="countsScaleFactor" value="1.0" />
		<!-- distance to distanceFilterCenterNode to include counting stations. The unit of distance is the Euclidean distance implied by the coordinate system -->
		<param name="distanceFilter" value="null" />
		<!-- node id for center node of distance filter -->
		<param name="distanceFilterCenterNode" value="null" />
		<!-- If true, link counts from legs performed on modes not included in the 'analyzedModes' parameter are ignored. -->
		<param name="filterModes" value="false" />
		<!-- The Coordinates Reference System in which the coordinates are expressed in the input file. At import, the coordinates will be converted to the coordinate system defined in "global", and willbe converted back at export. If not specified, no conversion happens. -->
		<param name="inputCRS" value="null" />
		<!-- input file name to counts package -->
		<param name="inputCountsFile" value="null" />
		<!-- possible values: `html', `txt', `all' -->
		<param name="outputformat" value="txt" />
		<!-- Specifies how often the counts comparison should be calculated and written. -->
		<param name="writeCountsInterval" value="10" />
	</module>
	<module name="emissions" >
		<!-- file with HBEFA vehicle type specific fleet average cold emission factors -->
		<param name="averageFleetColdEmissionFactorsFile" value="EFA_ColdStart_vehcat_2025average.csv" />
		<!-- file with HBEFA vehicle type specific fleet average warm emission factors -->
		<param name="averageFleetWarmEmissionFactorsFile" value="EFA_HOT_vehcat_2025average.csv" />
		<!-- file with HBEFA detailed cold emission factors -->
		<param name="detailedColdEmissionFactorsFile" value="EFA_ColdStart_SubSegm_2025detailedV3.csv" />
		<!-- Should the calculation bases on average or detailed emission factors? 
			onlyTryDetailedElseAbort : try detailed values. Abort if values are not found. Requires DETAILED emission factors. 
			tryDetailedThenTechnologyAverageElseAbort : try detailed values first, if not found try to use semi-detailed values for 'vehicleType,technology,average,average', if then not found abort. Requires DETAILED emission factors. 
			tryDetailedThenTechnologyAverageThenAverageTabletry detailed values first, if not found try to use semi-detailed values for 'vehicleType,technology,average,average', if then not found try lookup in average table. Requires DETAILED and AVERAGE emission factors. 
			directlyTryAverageTableonly calculate from average table. Requires AVERAGE emission factors. Default is onlyTryDetailedElseAbort -->
		<param name="detailedVsAverageLookupBehavior" value="tryDetailedThenTechnologyAverageThenAverageTable" />
		<!-- file with HBEFA detailed warm emission factors -->
		<param name="detailedWarmEmissionFactorsFile" value="EFA_HOT_SubSegm_2025detailedV3.csv" />
		<!-- if true, the original fractional method from Hülsmann et al (2011) will be used to calculate emission factors -->
		<param name="emissionsComputationMethod" value="AverageSpeed" />
		<!-- if true, don't fail when average speed is higher than the link freespeed, but cap it instead. -->
		<param name="handleHighAverageSpeeds" value="true" />
		<!-- Define on which level the entries in the provided hbefa tables are checked for consistency
			allCombinations : check if entries for all combinations of HbefaTrafficSituation, HbefaVehicleCategory, HbefaVehicleAttributes, HbefaComponent. are available in the table. It only checks for paramters that are available in the table (e.g. if there is no HGV in the table, it can also pass. 
			consistent : check if the entries for the two HbefaTrafficSituations 'StopAndGo' and 'FreeFlow' (nov 2020, may be subject to change) are consistently available in the table. 
			none : There is no consistency check. This option is NOT recommended and only for backward capability to inputs from before spring 2020 . 
			Default is allCombinations -->
		<param name="hbefaTableConsistencyCheckingLevel" value="none" />
		<!-- Each vehicle in matsim points to a VehicleType.  For the emissions package to work, each VehicleType needs to contain corresponding information.  This switch determines _where_ in VehicleType that information is contained.  default: asEngineInformationAttributes -->
		<param name="hbefaVehicleDescriptionSource" value="asEngineInformationAttributes" />
		<!-- if false, emission events will not appear in the events file. -->
		<param name="isWritingEmissionsEvents" value="true" />
		<!-- Specifies the handling of non-scenario vehicles.  The options are: [ignore, abort] Should eventually be extended by 'getVehiclesFromMobsim'. -->
		<param name="nonScenarioVehicles" value="abort" />
	</module>
	<module name="eventsManager" >
		<!-- Estimated number of events during mobsim run. An optional optimization hint for the framework. -->
		<param name="estimatedNumberOfEvents" value="null" />
		<!-- Size of the events Queue. Increase for very large scenarios -->
		<param name="eventsQueueSize" value="131072" />
		<!-- Number of threads for parallel events handler. _null_ means the framework decides by itself. 0 is currently not possible. -->
		<param name="numberOfThreads" value="null" />
		<!-- If enabled, each event handler is assigned to its own thread. Note that enabling this feature disabled the numberOfThreads option! This feature is still experimental! -->
		<param name="oneThreadPerHandler" value="false" />
		<!-- If enabled, it is ensured that all events that are created during a time step of the mobility simulation are processed before the next time step is simulated. E.g. neccessary when within-day replanning is used. -->
		<param name="synchronizeOnSimSteps" value="true" />
	</module>
	<module name="facilities" >
		<!-- This defines how facilities should be created. Possible values: none fromFile setInScenario onePerActivityLinkInPlansFile onePerActivityLinkInPlansFileExceptWhenCoordinatesAreGiven onePerActivityLocationInPlansFile  -->
		<param name="facilitiesSource" value="none" />
		<!-- A prefix to be used for auto-generated IDs. -->
		<param name="idPrefix" value="f_auto_" />
		<!-- The Coordinates Reference System in which the coordinates are expressed in the input file. At import, the coordinates will be converted to the coordinate system defined in "global", and willbe converted back at export. If not specified, no conversion happens. -->
		<param name="inputCRS" value="null" />
		<param name="inputFacilitiesFile" value="null" />
		<param name="inputFacilityAttributesFile" value="null" />
		<param name="insistingOnUsingDeprecatedFacilitiesAttributeFile" value="false" />
	</module>
	<module name="freightCarriers" >
		<!-- Freight Carriers File, according to MATSim freight contrib -->
		<param name="carriersFile" value="testCarrierPlanWithRoute.xml" />
		<!-- Carrier Vehicle Types file, according to MATSim freight contrib -->
		<param name="carriersVehicleTypeFile" value="testCarrierVehicleTypes.xml" />
		<!-- time slice width used for calculation of travel times in seconds. The smaller the value, the more precise the calculation of routing costs but the longer the computation time. Default value is 1800 seconds. -->
		<param name="travelTimeSliceWidth" value="1800" />
		<!-- Use distance constraint within the tour planning phase. This does NOT ensure that the tours in MATSim will respect this limitation -->
		<param name="useDistanceConstraintForTourPlanning" value="noDistanceConstraint" />
		<!-- (Optional) Vehicle Routing Algorithm File, according to jsprit library. Empty value "" means a default algorithm is used. -->
		<param name="vehicleRoutingAlgorithmFile" value="null" />
	</module>
	<module name="global" >
		<param name="coordinateSystem" value="Atlantis" />
		<param name="defaultDelimiter" value=";" />
		<param name="insistingOnDeprecatedConfigVersion" value="true" />
		<!-- "global" number of threads.  This number is used, e.g., for replanning, but NOT in QSim.  This can typically be set to as many cores as you have available, or possibly even slightly more. -->
		<param name="numberOfThreads" value="2" />
		<param name="randomSeed" value="4711" />
	</module>
	<module name="hermes" >
		<!-- Simulation End Time -->
		<param name="endTime" value="30:00:00" />
		<param name="flowCapacityFactor" value="1.0" />
		<param name="mainMode" value="car" />
		<param name="storageCapacityFactor" value="1.0" />
		<!-- time in seconds.  Time after which the frontmost vehicle on a link is called `stuck' if it does not move. Set to Integer.MAX_VALUE to disable this behavior -->
		<param name="stuckTime" value="10" />
		<!-- treats PT as deterministic. PT vehicles will run with a steady speed. Should be used with separate network layers for PT and other network modes. -->
		<param name="useDeterministicPt" value="false" />
	</module>
	<module name="households" >
		<param name="inputFile" value="null" />
		<param name="inputHouseholdAttributesFile" value="null" />
		<param name="insistingOnUsingDeprecatedHouseholdsAttributeFile" value="false" />
	</module>
	<module name="jdeqsim" >
		<param name="carSize" value="7.5" />
		<param name="endTime" value="undefined" />
		<param name="flowCapacityFactor" value="1.0" />
		<param name="gapTravelSpeed" value="15.0" />
		<param name="minimumInFlowCapacity" value="1800.0" />
		<param name="squeezeTime" value="1800.0" />
		<param name="storageCapacityFactor" value="1.0" />
	</module>
	<module name="linkStats" >
		<!-- Specifies over how many iterations the link volumes should be averaged that are used for the link statistics. Use 1 or 0 to only use the link volumes of a single iteration. This values cannot be larger than the value specified for writeLinkStatsInterval -->
		<param name="averageLinkStatsOverIterations" value="5" />
		<!-- Specifies how often the link stats should be calculated and written. Use 0 to disable the generation of link stats. -->
		<param name="writeLinkStatsInterval" value="50" />
	</module>
	<module name="network" >
		<!-- The Coordinates Reference System in which the coordinates are expressed in the input file. At import, the coordinates will be converted to the coordinate system defined in "global", and willbe converted back at export. If not specified, no conversion happens. -->
		<param name="inputCRS" value="null" />
		<param name="inputChangeEventsFile" value="null" />
		<param name="inputNetworkFile" value="GemeenteLeuvenWithHbefaType.xml.gz" />
		<param name="laneDefinitionsFile" value="null" />
		<param name="timeVariantNetwork" value="false" />
	</module>
	<module name="planInheritance" >
		<!-- Specifies whether or not PlanInheritance Information should be tracked. -->
		<param name="enabled" value="false" />
	</module>
	<module name="plans" >
		<!-- String: minOfDurationAndEndTime tryEndTimeThenDuration endTimeOnly. Anything besides minOfDurationAndEndTime will internally use a different (simpler) version of the TimeAllocationMutator. -->
		<param name="activityDurationInterpretation" value="tryEndTimeThenDuration" />
		<!-- Possible values: reject,useMainModeIdentifier -->
		<param name="handlingOfPlansWithoutRoutingMode" value="reject" />
		<!-- The Coordinates Reference System in which the coordinates are expressed in the input file. At import, the coordinates will be converted to the coordinate system defined in "global", and willbe converted back at export. If not specified, no conversion happens. -->
		<param name="inputCRS" value="null" />
		<param name="inputPersonAttributesFile" value="null" />
		<param name="inputPlansFile" value="null" />
		<param name="insistingOnUsingDeprecatedPersonAttributeFile" value="false" />
		<!-- Defines how routes are stored in memory. Currently supported: LinkNetworkRoute, MediumCompressedNetworkRoute, HeavyCompressedNetworkRoute. -->
		<param name="networkRouteType" value="LinkNetworkRoute" />
		<!-- (not tested) will remove plan attributes that are presumably not used, such as activityStartTime. default=false. Use with Caution! -->
		<param name="removingUnnecessaryPlanAttributes" value="false" />
		<!-- Defines how departure times are interpreted in rerouting applications. If set to 'ignoreDelays', the departure time of a trip when routing along a plan will always be the nominal (plan-based) activity end time. If set to 'shiftActivityEndTimes', routing along a plan will accumulate travel times and shift activity end times if necessary -->
		<param name="tripDurationHandling" value="ignoreDelays" />
	</module>
	<module name="qsim" >
		<param name="endTime" value="undefined" />
		<!-- If set to withLinkAttributes snapshots will only be generated for links which include generateSnapshotForLink as attribute key. Default is no filtering. -->
		<param name="filterSnapshots" value="no" />
		<param name="flowCapacityFactor" value="1.0" />
		<!-- decides if waiting vehicles enter the network after or before the already driving vehicles were moved. Default: false -->
		<param name="insertingWaitingVehiclesBeforeDrivingVehicles" value="true" />
		<!-- If link dynamics is set as SeepageQ, set to false if all seep modes should perform seepage. Default is true (better option). -->
		<param name="isRestrictingSeepage" value="true" />
		<!-- If link dynamics is set as SeepageQ, set to true if seep mode do not consumes any space on the link. Default is false. -->
		<param name="isSeepModeStorageFree" value="false" />
		<!-- default: FIFO; options: FIFO PassingQ SeepageQ -->
		<param name="linkDynamics" value="FIFO" />
		<!-- The (initial) width of the links of the network. Use positive floating point values. This is used only for visualisation. -->
		<param name="linkWidth" value="30.0" />
		<!-- [comma-separated list] Defines which modes are congested modes. Technically, these are the modes that the departure handler of the netsimengine handles.  Effective cell size, effective lane width, flow capacity factor, and storage capacity factor need to be set with diligence.  Need to be vehicular modes to make sense. -->
		<param name="mainMode" value="car" />
		<!-- Shortens a link in the visualization, i.e. its start and end point are moved into towards the center. Does not affect traffic flow.  -->
		<param name="nodeOffset" value="0.0" />
		<!-- Number of threads used for the QSim.  Note that this setting is independent from the "global" threads setting.  In contrast to earlier versions, the non-parallel special version is no longer there. -->
		<param name="numberOfThreads" value="1" />
		<!-- Boolean. `true': stuck vehicles are removed, aborting the plan; `false': stuck vehicles are forced into the next link. `false' is probably the better choice. -->
		<param name="removeStuckVehicles" value="false" />
		<!-- If link dynamics is set as SeepageQ, set a seep mode. Default is bike. -->
		<param name="seepMode" value="bike" />
		<!-- Possible values: minOfEndtimeAndMobsimFinished,onlyUseEndtime -->
		<param name="simEndtimeInterpretation" value="null" />
		<!-- Options: maxOfStarttimeAndEarliestActivityEnd onlyUseStarttime  -->
		<param name="simStarttimeInterpretation" value="maxOfStarttimeAndEarliestActivityEnd" />
		<!-- snapshotStyle. One of: equiDist queue withHoles withHolesAndShowHoles kinematicWaves  -->
		<param name="snapshotStyle" value="queue" />
		<param name="snapshotperiod" value="00:00:00" />
		<param name="startTime" value="undefined" />
		<param name="storageCapacityFactor" value="1.0" />
		<!-- time in seconds.  Time after which the frontmost vehicle on a link is called `stuck' if it does not move. -->
		<param name="stuckTime" value="10.0" />
		<param name="timeStepSize" value="00:00:01" />
		<!-- options: queue withHoles kinematicWaves  -->
		<param name="trafficDynamics" value="queue" />
		<!-- Set this parameter to true if lanes should be used, false if not. -->
		<param name="useLanes" value="false" />
		<!-- If a route does not reference a vehicle, agents will use the vehicle with the same id as their own. -->
		<param name="usePersonIdForMissingVehicleId" value="true" />
		<!-- If false, the qsim accumulates fractional flows up to one flow unit in every time step.  If true, flows are updated only if an agent wants to enter the link or an agent is added to buffer. Default is true. -->
		<param name="usingFastCapacityUpdate" value="true" />
		<!-- Defines what happens if an agent wants to depart, but the specified vehicle is not available. One of: teleport wait exception  -->
		<param name="vehicleBehavior" value="teleport" />
		<!-- If vehicles should all be the same default vehicle, or come from the vehicles file, or something else.  Possible values:  defaultVehicle modeVehicleTypesFromVehiclesData fromVehiclesData -->
		<param name="vehiclesSource" value="defaultVehicle" />
	</module>
	<module name="replanning" >
		<!-- the external executable will be called with a config file as argument.  This is the pathname to a possible skeleton config, to which additional information will be added.  Can be null. -->
		<param name="ExternalExeConfigTemplate" value="null" />
		<!-- time out value (in seconds) after which matsim will consider the external strategy as failed -->
		<param name="ExternalExeTimeOut" value="3600" />
		<!-- root directory for temporary files generated by the external executable. Provided as a service; I don't think this is used by MATSim. -->
		<param name="ExternalExeTmpFileRootDir" value="null" />
		<!-- fraction of iterations where innovative strategies are switched off.  Something like 0.8 should be good.  E.g. if you run from iteration 400 to iteration 500, innovation is switched off at iteration 480 -->
		<param name="fractionOfIterationsToDisableInnovation" value="Infinity" />
		<!-- maximum number of plans per agent.  ``0'' means ``infinity''.  Currently (2010), ``5'' is a good number -->
		<param name="maxAgentPlanMemorySize" value="5" />
		<!-- strategyName of PlanSelector for plans removal.  Possible defaults: WorstPlanSelector SelectRandom SelectExpBetaForRemoval ChangeExpBetaForRemoval PathSizeLogitSelectorForRemoval . The current default, WorstPlanSelector is not a good choice from a discrete choice theoretical perspective. Alternatives, however, have not been systematically tested. kai, feb'12 -->
		<param name="planSelectorForRemoval" value="WorstPlanSelector" />
		<parameterset type="strategysettings" >
			<!-- iteration after which strategy will be disabled.  most useful for ``innovative'' strategies (new routes, new times, ...). Normally, better use fractionOfIterationsToDisableInnovation -->
			<param name="disableAfterIteration" value="-1" />
			<!-- path to external executable (if applicable) -->
			<param name="executionPath" value="null" />
			<!-- strategyName of strategy.  Possible default names: SelectRandom BestScore KeepLastSelected ChangeExpBeta SelectExpBeta SelectPathSizeLogit      (selectors), ReRouteTimeAllocationMutatorTimeAllocationMutator_ReRouteChangeSingleTripModeChangeTripModeSubtourModeChoice (innovative strategies). -->
			<param name="strategyName" value="ChangeExpBeta" />
			<!-- subpopulation to which the strategy applies. "null" refers to the default population, that is, the set of persons for which no explicit subpopulation is defined (ie no subpopulation attribute) -->
			<param name="subpopulation" value="null" />
			<!-- weight of a strategy: for each agent, a strategy will be selected with a probability proportional to its weight -->
			<param name="weight" value="1.0" />
		</parameterset>
	</module>
	<module name="replanningAnnealer" >
		<!-- Activate the scaling of replanning modules using an annealing approach rather than fixed rates. -->
		<param name="activateAnnealingModule" value="false" />
	</module>
	<module name="routing" >
		<!-- Defines how access and egress to main mode is simulated. Either of [none, accessEgressModeToLink, walkConstantTimeToLink, accessEgressModeToLinkPlusTimeConstant], Current default=none which means no access or egress trips are simulated. -->
		<param name="accessEgressType" value="none" />
		<!-- Some typical teleportation routing params are set by default, such as for walk and bike.  Setting this switch to "true" will clear them.  Note that this will also clear settings for helper modes such as for non_network_walk -->
		<param name="clearDefaultTeleportedModeParams" value="false" />
		<!-- All the modes for which the router is supposed to generate network routes (like car) -->
		<param name="networkModes" value="car" />
		<!-- strength of the randomness for the utility of money in routing under toll.  Leads to Pareto-optimal route with randomly drawn money-vs-other-attributes tradeoff. Technically the width parameter of a log-normal distribution. 3.0 seems to be a good value.  -->
		<param name="routingRandomness" value="3.0" />
		<parameterset type="teleportedModeParameters" >
			<param name="beelineDistanceFactor" value="1.3" />
			<param name="mode" value="bike" />
			<!-- Free-speed factor for a teleported mode. Travel time = teleportedModeFreespeedFactor * <freespeed car travel time>. Insert a line like this for every such mode. Please do not set teleportedModeFreespeedFactor as well as teleportedModeSpeed for the same mode, but if you do, +teleportedModeFreespeedFactor wins over teleportedModeSpeed. -->
			<param name="teleportedModeFreespeedFactor" value="null" />
			<!-- Speed for a teleported mode. Travel time = (<beeline distance> * beelineDistanceFactor) / teleportedModeSpeed. Insert a line like this for every such mode. -->
			<param name="teleportedModeSpeed" value="4.166666666666667" />
		</parameterset>
		<parameterset type="teleportedModeParameters" >
			<param name="beelineDistanceFactor" value="1.3" />
			<param name="mode" value="walk" />
			<param name="teleportedModeFreespeedFactor" value="null" />
			<param name="teleportedModeSpeed" value="0.8333333333333333" />
		</parameterset>
		<parameterset type="teleportedModeParameters" >
			<param name="beelineDistanceFactor" value="1.3" />
			<param name="mode" value="non_network_walk" />
			<param name="teleportedModeFreespeedFactor" value="null" />
			<param name="teleportedModeSpeed" value="0.8333333333333333" />
		</parameterset>
		<parameterset type="teleportedModeParameters" >
			<param name="beelineDistanceFactor" value="1.3" />
			<param name="mode" value="ride" />
			<param name="teleportedModeFreespeedFactor" value="1.0" />
			<param name="teleportedModeSpeed" value="null" />
		</parameterset>
		<parameterset type="teleportedModeParameters" >
			<param name="beelineDistanceFactor" value="1.3" />
			<param name="mode" value="pt" />
			<param name="teleportedModeFreespeedFactor" value="2.0" />
			<param name="teleportedModeSpeed" value="null" />
		</parameterset>
	</module>
	<module name="scoring" >
		<!-- logit model scale parameter. default: 1.  Has name and default value for historical reasons (see Bryan Raney's phd thesis). -->
		<param name="brainExpBeta" value="1.0" />
		<!-- fraction of iterations at which MSA score averaging is started. The matsim theory department suggests to use this together with switching off choice set innovation (where a similar switch exists), but it has not been tested yet. -->
		<param name="fractionOfIterationsToStartScoreMSA" value="null" />
		<!-- new_score = (1-learningRate)*old_score + learningRate * score_from_mobsim.  learning rates close to zero emulate score averaging, but slow down initial convergence -->
		<param name="learningRate" value="1.0" />
		<param name="pathSizeLogitBeta" value="1.0" />
		<!-- There used to be a plateau between duration=0 and duration=zeroUtilityDuration. This caused durations to evolve to zero once they were below zeroUtilityDuration, causing problems.  Only use this switch if you need to be backwards compatible with some old results.  (changed nov'13) -->
		<param name="usingOldScoringBelowZeroUtilityDuration" value="false" />
		<!-- write a plans file in each iteration directory which contains what each agent actually did, and the score it received. -->
		<param name="writeExperiencedPlans" value="false" />
		<parameterset type="scoringParameters" >
			<param name="earlyDeparture" value="-0.0" />
			<param name="lateArrival" value="-18.0" />
			<param name="marginalUtilityOfMoney" value="1.0" />
			<param name="performing" value="6.0" />
			<param name="subpopulation" value="null" />
			<param name="utilityOfLineSwitch" value="-1.0" />
			<param name="waiting" value="-0.0" />
			<param name="waitingPt" value="-6.0" />
			<parameterset type="activityParams" >
				<param name="activityType" value="dummy" />
				<param name="closingTime" value="undefined" />
				<param name="earliestEndTime" value="undefined" />
				<param name="latestStartTime" value="undefined" />
				<param name="minimalDuration" value="undefined" />
				<param name="openingTime" value="undefined" />
				<param name="priority" value="1.0" />
				<param name="scoringThisActivityAtAll" value="true" />
				<!-- typical duration of activity.  needs to be defined and non-zero.  in sec. -->
				<param name="typicalDuration" value="02:00:00" />
				<!-- method to compute score at typical duration.  Options: | uniform | relative | Use uniform for backwards compatibility (all activities same score; higher proba to drop long acts). -->
				<param name="typicalDurationScoreComputation" value="relative" />
			</parameterset>
			<parameterset type="activityParams" >
				<param name="activityType" value="car interaction" />
				<param name="closingTime" value="undefined" />
				<param name="earliestEndTime" value="undefined" />
				<param name="latestStartTime" value="undefined" />
				<param name="minimalDuration" value="undefined" />
				<param name="openingTime" value="undefined" />
				<param name="priority" value="1.0" />
				<param name="scoringThisActivityAtAll" value="false" />
				<param name="typicalDuration" value="undefined" />
				<param name="typicalDurationScoreComputation" value="relative" />
			</parameterset>
			<parameterset type="activityParams" >
				<param name="activityType" value="pt interaction" />
				<param name="closingTime" value="undefined" />
				<param name="earliestEndTime" value="undefined" />
				<param name="latestStartTime" value="undefined" />
				<param name="minimalDuration" value="undefined" />
				<param name="openingTime" value="undefined" />
				<param name="priority" value="1.0" />
				<param name="scoringThisActivityAtAll" value="false" />
				<param name="typicalDuration" value="undefined" />
				<param name="typicalDurationScoreComputation" value="relative" />
			</parameterset>
			<parameterset type="activityParams" >
				<param name="activityType" value="bike interaction" />
				<param name="closingTime" value="undefined" />
				<param name="earliestEndTime" value="undefined" />
				<param name="latestStartTime" value="undefined" />
				<param name="minimalDuration" value="undefined" />
				<param name="openingTime" value="undefined" />
				<param name="priority" value="1.0" />
				<param name="scoringThisActivityAtAll" value="false" />
				<param name="typicalDuration" value="undefined" />
				<param name="typicalDurationScoreComputation" value="relative" />
			</parameterset>
			<parameterset type="activityParams" >
				<param name="activityType" value="drt interaction" />
				<param name="closingTime" value="undefined" />
				<param name="earliestEndTime" value="undefined" />
				<param name="latestStartTime" value="undefined" />
				<param name="minimalDuration" value="undefined" />
				<param name="openingTime" value="undefined" />
				<param name="priority" value="1.0" />
				<param name="scoringThisActivityAtAll" value="false" />
				<param name="typicalDuration" value="undefined" />
				<param name="typicalDurationScoreComputation" value="relative" />
			</parameterset>
			<parameterset type="activityParams" >
				<param name="activityType" value="taxi interaction" />
				<param name="closingTime" value="undefined" />
				<param name="earliestEndTime" value="undefined" />
				<param name="latestStartTime" value="undefined" />
				<param name="minimalDuration" value="undefined" />
				<param name="openingTime" value="undefined" />
				<param name="priority" value="1.0" />
				<param name="scoringThisActivityAtAll" value="false" />
				<param name="typicalDuration" value="undefined" />
				<param name="typicalDurationScoreComputation" value="relative" />
			</parameterset>
			<parameterset type="activityParams" >
				<param name="activityType" value="other interaction" />
				<param name="closingTime" value="undefined" />
				<param name="earliestEndTime" value="undefined" />
				<param name="latestStartTime" value="undefined" />
				<param name="minimalDuration" value="undefined" />
				<param name="openingTime" value="undefined" />
				<param name="priority" value="1.0" />
				<param name="scoringThisActivityAtAll" value="false" />
				<param name="typicalDuration" value="undefined" />
				<param name="typicalDurationScoreComputation" value="relative" />
			</parameterset>
			<parameterset type="activityParams" >
				<param name="activityType" value="walk interaction" />
				<param name="closingTime" value="undefined" />
				<param name="earliestEndTime" value="undefined" />
				<param name="latestStartTime" value="undefined" />
				<param name="minimalDuration" value="undefined" />
				<param name="openingTime" value="undefined" />
				<param name="priority" value="1.0" />
				<param name="scoringThisActivityAtAll" value="false" />
				<param name="typicalDuration" value="undefined" />
				<param name="typicalDurationScoreComputation" value="relative" />
			</parameterset>
			<parameterset type="activityParams" >
				<param name="activityType" value="home" />
				<param name="closingTime" value="undefined" />
				<param name="earliestEndTime" value="undefined" />
				<param name="latestStartTime" value="undefined" />
				<param name="minimalDuration" value="undefined" />
				<param name="openingTime" value="undefined" />
				<param name="priority" value="1.0" />
				<param name="scoringThisActivityAtAll" value="true" />
				<param name="typicalDuration" value="12:00:00" />
				<param name="typicalDurationScoreComputation" value="relative" />
			</parameterset>
			<parameterset type="activityParams" >
				<param name="activityType" value="work" />
				<param name="closingTime" value="undefined" />
				<param name="earliestEndTime" value="undefined" />
				<param name="latestStartTime" value="undefined" />
				<param name="minimalDuration" value="undefined" />
				<param name="openingTime" value="undefined" />
				<param name="priority" value="1.0" />
				<param name="scoringThisActivityAtAll" value="true" />
				<param name="typicalDuration" value="08:00:00" />
				<param name="typicalDurationScoreComputation" value="relative" />
			</parameterset>
			<parameterset type="activityParams" >
				<param name="activityType" value="ride interaction" />
				<param name="closingTime" value="undefined" />
				<param name="earliestEndTime" value="undefined" />
				<param name="latestStartTime" value="undefined" />
				<param name="minimalDuration" value="undefined" />
				<param name="openingTime" value="undefined" />
				<param name="priority" value="1.0" />
				<param name="scoringThisActivityAtAll" value="false" />
				<param name="typicalDuration" value="undefined" />
				<param name="typicalDurationScoreComputation" value="relative" />
			</parameterset>
			<parameterset type="modeParams" >
				<!-- [utils] alternative-specific constant.  Normally per trip, but that is probably buggy for multi-leg trips. -->
				<param name="constant" value="0.0" />
				<!-- [unit_of_money/day] Fixed cost of mode, per day. -->
				<param name="dailyMonetaryConstant" value="0.0" />
				<!-- [utils] daily utility constant. default=0 to be backwards compatible -->
				<param name="dailyUtilityConstant" value="0.0" />
				<!-- [utils/m] utility of traveling (e.g. walking or driving) per m, normally negative.  this is on top of the time (dis)utility. -->
				<param name="marginalUtilityOfDistance_util_m" value="0.0" />
				<!-- [utils/hr] additional marginal utility of traveling.  normally negative.  this comes on top of the opportunity cost of time -->
				<param name="marginalUtilityOfTraveling_util_hr" value="-6.0" />
				<param name="mode" value="car" />
				<!-- [unit_of_money/m] conversion of distance into money. Normally negative. -->
				<param name="monetaryDistanceRate" value="0.0" />
			</parameterset>
			<parameterset type="modeParams" >
				<param name="constant" value="0.0" />
				<param name="dailyMonetaryConstant" value="0.0" />
				<param name="dailyUtilityConstant" value="0.0" />
				<param name="marginalUtilityOfDistance_util_m" value="0.0" />
				<param name="marginalUtilityOfTraveling_util_hr" value="-6.0" />
				<param name="mode" value="pt" />
				<param name="monetaryDistanceRate" value="0.0" />
			</parameterset>
			<parameterset type="modeParams" >
				<param name="constant" value="0.0" />
				<param name="dailyMonetaryConstant" value="0.0" />
				<param name="dailyUtilityConstant" value="0.0" />
				<param name="marginalUtilityOfDistance_util_m" value="0.0" />
				<param name="marginalUtilityOfTraveling_util_hr" value="-6.0" />
				<param name="mode" value="walk" />
				<param name="monetaryDistanceRate" value="0.0" />
			</parameterset>
			<parameterset type="modeParams" >
				<param name="constant" value="0.0" />
				<param name="dailyMonetaryConstant" value="0.0" />
				<param name="dailyUtilityConstant" value="0.0" />
				<param name="marginalUtilityOfDistance_util_m" value="0.0" />
				<param name="marginalUtilityOfTraveling_util_hr" value="-6.0" />
				<param name="mode" value="bike" />
				<param name="monetaryDistanceRate" value="0.0" />
			</parameterset>
			<parameterset type="modeParams" >
				<param name="constant" value="0.0" />
				<param name="dailyMonetaryConstant" value="0.0" />
				<param name="dailyUtilityConstant" value="0.0" />
				<param name="marginalUtilityOfDistance_util_m" value="0.0" />
				<param name="marginalUtilityOfTraveling_util_hr" value="-6.0" />
				<param name="mode" value="ride" />
				<param name="monetaryDistanceRate" value="0.0" />
			</parameterset>
			<parameterset type="modeParams" >
				<param name="constant" value="0.0" />
				<param name="dailyMonetaryConstant" value="0.0" />
				<param name="dailyUtilityConstant" value="0.0" />
				<param name="marginalUtilityOfDistance_util_m" value="0.0" />
				<param name="marginalUtilityOfTraveling_util_hr" value="-6.0" />
				<param name="mode" value="other" />
				<param name="monetaryDistanceRate" value="0.0" />
			</parameterset>
		</parameterset>
	</module>
	<module name="subtourModeChoice" >
		<!-- Only for backwards compatibility.  Defines if only trips from modes list should change mode, or all trips.  Options: fromAllModesToSpecifiedModes fromSpecifiedModesToSpecifiedModes betweenAllAndFewerConstraints  -->
		<param name="behavior" value="fromSpecifiedModesToSpecifiedModes" />
		<!-- Defines the chain-based modes, seperated by commas -->
		<param name="chainBasedModes" value="car,bike" />
		<!-- Defines whether car availability must be considered or not. A agent has no car only if it has no license, or never access to a car -->
		<param name="considerCarAvailability" value="false" />
		<!-- If greater than 0, subtours will also consider coordinates to be at the same location when smaller than set distance. -->
		<param name="coordDistance" value="0.0" />
		<!-- Defines all the modes available, including chain-based modes, seperated by commas -->
		<param name="modes" value="car,pt,bike,walk" />
		<!-- Defines the probability of changing a single trip for a unchained mode instead of subtour. -->
		<param name="probaForRandomSingleTripMode" value="0.0" />
	</module>
	<module name="timeAllocationMutator" >
		<!-- Latest Activity End Time. Default = 24:00:00 -->
		<param name="latestActivityEndTime" value="86400.0" />
		<!-- Mutates times only around the initially defined end times. -->
		<param name="mutateAroundInitialEndTimeOnly" value="false" />
		<!-- Default:true; Defines whether time mutation changes an activity's duration. -->
		<param name="mutationAffectsDuration" value="true" />
		<!-- Default:1800.0; Defines how many seconds a time mutation can maximally shift a time. -->
		<param name="mutationRange" value="1800.0" />
		<!-- Mutation Range Step, default = 1 second -->
		<param name="mutationRangeStep" value="1.0" />
	</module>
	<module name="transit" >
		<!-- The Coordinates Reference System in which the coordinates are expressed in the input file. At import, the coordinates will be converted to the coordinate system defined in "global", and willbe converted back at export. If not specified, no conversion happens. -->
		<param name="inputScheduleCRS" value="null" />
		<param name="insistingOnUsingDeprecatedAttributeFiles" value="false" />
		<!-- The type of transit routing algorithm used, may have the values: [DijkstraBased, SwissRailRaptor] -->
		<param name="routingAlgorithmType" value="SwissRailRaptor" />
		<!-- Optional input file containing additional attributes for transit lines, stored as ObjectAttributes. -->
		<param name="transitLinesAttributesFile" value="null" />
		<!-- Comma-separated list of transportation modes that are handled as transit. Defaults to 'pt'. -->
		<param name="transitModes" value="pt" />
		<!-- Input file containing the transit schedule to be simulated. -->
		<param name="transitScheduleFile" value="null" />
		<!-- Optional input file containing additional attributes for transit stop facilities, stored as ObjectAttributes. -->
		<param name="transitStopsAttributesFile" value="null" />
		<!-- Set this parameter to true if transit should be simulated, false if not. -->
		<param name="useTransit" value="false" />
		<param name="usingTransitInMobsim" value="true" />
		<!-- Input file containing the vehicles used by the departures in the transit schedule. -->
		<param name="vehiclesFile" value="null" />
	</module>
	<module name="transitRouter" >
		<!-- additional time the router allocates when a line switch happens. Can be interpreted as a 'safety' time that agents need to safely transfer from one line to another -->
		<param name="additionalTransferTime" value="0.0" />
		<!-- Factor with which direct walk generalized cost is multiplied before it is compared to the pt generalized cost.  Set to a very high value to reduce direct walk results. -->
		<param name="directWalkFactor" value="1.0" />
		<!-- step size to increase searchRadius if no stops are found -->
		<param name="extensionRadius" value="200.0" />
		<!-- maximum beeline distance between stops that agents could transfer to by walking -->
		<param name="maxBeelineWalkConnectionDistance" value="100.0" />
		<!-- the radius in which stop locations are searched, given a start or target coordinate -->
		<param name="searchRadius" value="1000.0" />
	</module>
	<module name="travelTimeCalculator" >
		<!-- (only for backwards compatibility; only used if separateModes==false && + filterModes==true)  Transport modes that will be respected by the travel time collector. 'car' is default which includes also buses from the pt simulation module. -->
		<param name="analyzedModes" value="car" />
		<param name="calculateLinkToLinkTravelTimes" value="false" />
		<param name="calculateLinkTravelTimes" value="true" />
		<!-- (only for backwards compatiblity; only used if separateModes==false)  Only modes included in analyzedModes are included. -->
		<param name="filterModes" value="false" />
		<!-- The lenght (in sec) of the time period that is splited into time bins; an additional time bin is created to aggregate all travel times collected after maxTime -->
		<param name="maxTime" value="108000" />
		<!-- (only for backwards compatibility) If false, link travel times are measured and aggregated over all vehicles using the link. -->
		<param name="separateModes" value="true" />
		<!-- How to deal with congested time bins that have no link entry events. `optimistic' assumes free speed (too optimistic); 'experimental_LastMile' is experimental and probably too pessimistic. -->
		<param name="travelTimeAggregator" value="optimistic" />
		<!-- The size of the time bin (in sec) into which the link travel times are aggregated for the router -->
		<param name="travelTimeBinSize" value="900.0" />
		<!-- How to deal with link entry times at different positions during the time bin. Currently supported: average, linearinterpolation -->
		<param name="travelTimeGetter" value="average" />
	</module>
	<module name="vehicles" >
		<param name="vehiclesFile" value="emissionVanTest.xml" />
	</module>
	<module name="vspExperimental" >
		<!-- (do not use except of you have to) There was a problem with pt interaction scoring.  Some people solved it by overwriting the parameters of the pt interaction activity type.  Doing this now throws an Exception.  If you still insist on doing this, set the following to true. -->
		<param name="isAbleToOverwritePtInteractionParams" value="false" />
		<param name="isGeneratingBoardingDeniedEvent" value="false" />
		<!-- if an approximation of the opportunity cost of time is included into the radius calculation for location choice.`true' will be faster, but it is an approximation.  Default is `true'; `false' is available for backwards compatibility. -->
		<param name="isUsingOpportunityCostOfTimeForLocationChoice" value="true" />
		<param name="logitScaleParamForPlansRemoval" value="1.0" />
		<!-- Options: | ignore | info | warn | abort | .  When violating VSP defaults, this results in nothing, logfile infos, logfile warnings, or aborts.  Members of VSP should use `abort' or talk to kai. -->
		<param name="vspDefaultsCheckingLevel" value="ignore" />
		<!-- if true then writes output_events in output directory.  default is `false'. Will only work when lastIteration is multiple of events writing interval -->
		<param name="writingOutputEvents" value="true" />
	</module>

</config>

2024-10-27T22:49:49,976  INFO ControlerUtils:84 Complete config dump done.
2024-10-27T22:49:49,976  INFO ControlerUtils:85 Checking consistency of config...
2024-10-27T22:49:49,976  WARN EmissionsConfigGroup:326 This setting of emissionsComputationMethod. AverageSpeed is not covered by many test cases.
2024-10-27T22:49:49,976  INFO ScoringConfigGroup$ScoringParameterSet:1555 NO OPENING OR CLOSING TIMES DEFINED!

There is no activity type that has an opening *and* closing time (or opening time and late penalty) defined.
This usually means that the activity chains can be shifted by an arbitrary
number of hours without having an effect on the score of the plans, and thus
resulting in wrong results / traffic patterns.
If you are using MATSim without time adaptation, you can ignore this warning.


2024-10-27T22:49:49,976  INFO VspConfigConsistencyCheckerImpl:68 NOT running vsp config consistency check because vsp defaults checking level is set to IGNORE
2024-10-27T22:49:49,984  INFO ControlerUtils:87 Checking consistency of config done.
2024-10-27T22:49:49,984  INFO PrepareForSimImpl:128 Network seems to be multimodal. Create car-only network which is handed over to PersonPrepareForSim.
2024-10-27T22:49:49,988  INFO NetworkImpl:165  node # 1
2024-10-27T22:49:49,988  INFO NetworkImpl:165  node # 4
2024-10-27T22:49:49,988  INFO NetworkImpl:165  node # 16
2024-10-27T22:49:49,988  INFO NetworkImpl:165  node # 64
2024-10-27T22:49:49,988  INFO NetworkImpl:165  node # 256
2024-10-27T22:49:49,989  INFO NetworkImpl:165  node # 1024
2024-10-27T22:49:49,989  INFO NetworkImpl:165  node # 4096
2024-10-27T22:49:49,994  INFO NetworkImpl:165  node # 16384
2024-10-27T22:49:50,003  INFO NetworkImpl:161  link # 1
2024-10-27T22:49:50,004  INFO NetworkImpl:161  link # 4
2024-10-27T22:49:50,004  INFO NetworkImpl:161  link # 16
2024-10-27T22:49:50,004  INFO NetworkImpl:161  link # 64
2024-10-27T22:49:50,005  INFO NetworkImpl:161  link # 256
2024-10-27T22:49:50,007  INFO NetworkImpl:161  link # 1024
2024-10-27T22:49:50,014  INFO NetworkImpl:161  link # 4096
2024-10-27T22:49:50,027  INFO NetworkImpl:161  link # 16384
2024-10-27T22:49:50,124  INFO SpeedyALTData:51 find dead ends...
2024-10-27T22:49:50,130  INFO SpeedyALTData:132 calculate landmarks...
2024-10-27T22:49:50,314  INFO SpeedyALTData:173 calculate min travelcost...
2024-10-27T22:49:50,328  INFO NetworkImpl:165  node # 1
2024-10-27T22:49:50,328  INFO NetworkImpl:165  node # 4
2024-10-27T22:49:50,328  INFO NetworkImpl:165  node # 16
2024-10-27T22:49:50,328  INFO NetworkImpl:165  node # 64
2024-10-27T22:49:50,328  INFO NetworkImpl:165  node # 256
2024-10-27T22:49:50,328  INFO NetworkImpl:165  node # 1024
2024-10-27T22:49:50,328  INFO NetworkImpl:165  node # 4096
2024-10-27T22:49:50,330  INFO NetworkImpl:165  node # 16384
2024-10-27T22:49:50,333  INFO NetworkImpl:161  link # 1
2024-10-27T22:49:50,333  INFO NetworkImpl:161  link # 4
2024-10-27T22:49:50,333  INFO NetworkImpl:161  link # 16
2024-10-27T22:49:50,333  INFO NetworkImpl:161  link # 64
2024-10-27T22:49:50,333  INFO NetworkImpl:161  link # 256
2024-10-27T22:49:50,334  INFO NetworkImpl:161  link # 1024
2024-10-27T22:49:50,337  INFO NetworkImpl:161  link # 4096
2024-10-27T22:49:50,344  INFO NetworkImpl:161  link # 16384
2024-10-27T22:49:50,378  WARN RandomizingTimeDistanceTravelDisutilityFactory:113 There will be no routing randomness. The randomization of the travel disutility requires the monetary distance rate to be different than zero. Continuing anyway.
2024-10-27T22:49:50,378  WARN RandomizingTimeDistanceTravelDisutilityFactory:118 There will be no routing randomness. The randomization of the travel disutility requires the travel time cost rate to be different than zero. Continuing anyway.
2024-10-27T22:49:50,379  INFO RandomizingTimeDistanceTravelDisutilityFactory:86  sigma: 3.0; resulting normalization: 0.011108996538242306
2024-10-27T22:49:50,392  INFO SpeedyALTData:51 find dead ends...
2024-10-27T22:49:50,394  INFO SpeedyALTData:132 calculate landmarks...
2024-10-27T22:49:50,474  INFO SpeedyALTData:173 calculate min travelcost...
2024-10-27T22:49:50,493  INFO SpeedyALTData:51 find dead ends...
2024-10-27T22:49:50,495  INFO SpeedyALTData:132 calculate landmarks...
2024-10-27T22:49:50,638  INFO SpeedyALTData:173 calculate min travelcost...
2024-10-27T22:49:50,654  INFO RandomizingTimeDistanceTravelDisutilityFactory:86  sigma: 3.0; resulting normalization: 0.011108996538242306
2024-10-27T22:49:50,659  INFO Counter:75 [PersonPrepareForSim] handled person # 0
2024-10-27T22:49:50,675  INFO AbstractController:136 ###################################################
2024-10-27T22:49:50,675  INFO AbstractController:137 ### ITERATION 0 BEGINS
2024-10-27T22:49:50,676  INFO ControlerListenerManagerImpl:156 calling notifyIterationStarts on org.matsim.analysis.LegHistogramListener with priority 0.0
2024-10-27T22:49:50,676  INFO ControlerListenerManagerImpl:156 calling notifyIterationStarts on org.matsim.analysis.LinkStatsControlerListener with priority 0.0
2024-10-27T22:49:50,676  INFO ControlerListenerManagerImpl:156 calling notifyIterationStarts on org.matsim.core.replanning.ReplanningContextImpl with priority 0.0
2024-10-27T22:49:50,676  INFO ControlerListenerManagerImpl:156 calling notifyIterationStarts on org.matsim.core.scoring.ScoringFunctionsForPopulation$$Lambda/0x000001f19d3ca2e0 with priority 0.0
2024-10-27T22:49:50,676  INFO ControlerListenerManagerImpl:156 calling notifyIterationStarts on org.matsim.core.scoring.ExperiencedPlansServiceImpl$1 with priority 0.0
2024-10-27T22:49:50,676  INFO ControlerListenerManagerImpl:159 [it.0] all ControlerIterationStartsListeners called.
2024-10-27T22:49:50,676  INFO ControlerListenerManagerImpl:242 calling notifyBeforeMobsim on org.matsim.core.controler.corelisteners.EventsHandlingImpl with priority 0.0
2024-10-27T22:49:50,676  INFO EventsManagerImpl:168 resetting Event-Handlers
2024-10-27T22:49:50,677  INFO EventsManagerImpl:175   org.matsim.core.trafficmonitoring.TravelTimeCalculator
2024-10-27T22:49:50,677  INFO EventsManagerImpl:175   org.matsim.contrib.emissions.WarmEmissionHandler
2024-10-27T22:49:50,677  INFO WarmEmissionAnalysisModule:183 resetting counters...
2024-10-27T22:49:50,677  INFO EventsManagerImpl:175   org.matsim.analysis.VolumesAnalyzer
2024-10-27T22:49:50,677  INFO EventsManagerImpl:175   org.matsim.contrib.emissions.ColdEmissionHandler
2024-10-27T22:49:50,677  INFO ColdEmissionHandler:77 resetting counters...
2024-10-27T22:49:50,677  INFO EventsManagerImpl:175   org.matsim.core.scoring.ScoringFunctionsForPopulation
2024-10-27T22:49:50,677  INFO EventsManagerImpl:175   org.matsim.freight.carriers.controler.CarrierAgentTracker
2024-10-27T22:49:50,677  INFO EventsManagerImpl:175   org.matsim.analysis.LegHistogram
2024-10-27T22:49:50,677  INFO EventsManagerImpl:175   org.matsim.analysis.CalcLegTimes
2024-10-27T22:49:50,677  INFO EventsManagerImpl:175   org.matsim.freight.carriers.usecases.analysis.LegHistogram
2024-10-27T22:49:50,677  INFO EventsManagerImpl:175   org.matsim.freight.carriers.usecases.analysis.LegHistogram
2024-10-27T22:49:50,679  INFO EventsManagerImpl:138 adding Event-Handler: org.matsim.core.events.algorithms.EventWriterXML
2024-10-27T22:49:50,679  INFO EventsManagerImpl:144   org.matsim.core.events.algorithms.EventWriter
2024-10-27T22:49:50,679  INFO EventsManagerImpl:144   org.matsim.core.events.handler.BasicEventHandler
2024-10-27T22:49:50,679  INFO EventsManagerImpl:205     > org.matsim.api.core.v01.events.Event
2024-10-27T22:49:50,679  INFO EventsManagerImpl:154 
2024-10-27T22:49:50,679  INFO EventsManagerImpl:138 adding Event-Handler: org.matsim.core.events.algorithms.EventWriterXML
2024-10-27T22:49:50,679  INFO EventsManagerImpl:144   org.matsim.core.events.algorithms.EventWriter
2024-10-27T22:49:50,679  INFO EventsManagerImpl:144   org.matsim.core.events.handler.BasicEventHandler
2024-10-27T22:49:50,679  INFO EventsManagerImpl:205     > org.matsim.api.core.v01.events.Event
2024-10-27T22:49:50,679  INFO EventsManagerImpl:154 
2024-10-27T22:49:50,679  INFO ControlerListenerManagerImpl:242 calling notifyBeforeMobsim on org.matsim.core.controler.corelisteners.PlansDumpingImpl with priority 0.0
2024-10-27T22:49:50,679  INFO PlansDumpingImpl:77 dumping plans...
2024-10-27T22:49:50,711  INFO Counter:75 [ParallelPopulationWriterV6] dumped person # 0
2024-10-27T22:49:50,711  INFO PopulationWriter:150 Population written to: ../../data/intermediate/test/freight_emission/outputs/ITERS/it.0/0.plans.xml.gz
2024-10-27T22:49:50,711  INFO Counter:75 [PopulationWriter] dumped person # 0
2024-10-27T22:49:50,712  INFO PlansDumpingImpl:94 finished plans dump.
2024-10-27T22:49:50,712  INFO ControlerListenerManagerImpl:248 calling notifyBeforeMobsim on org.matsim.core.population.VspPlansCleaner with priority 0.0
2024-10-27T22:49:50,712  INFO ControlerListenerManagerImpl:251 [it.0] all ControlerBeforeMobsimListeners called.
2024-10-27T22:49:50,712  INFO PrepareForMobsimImpl:86 Network seems to be multimodal. Create car-only network which is handed over to PersonPrepareForSim.
2024-10-27T22:49:50,712  INFO NetworkImpl:165  node # 1
2024-10-27T22:49:50,712  INFO NetworkImpl:165  node # 4
2024-10-27T22:49:50,712  INFO NetworkImpl:165  node # 16
2024-10-27T22:49:50,712  INFO NetworkImpl:165  node # 64
2024-10-27T22:49:50,713  INFO NetworkImpl:165  node # 256
2024-10-27T22:49:50,713  INFO NetworkImpl:165  node # 1024
2024-10-27T22:49:50,713  INFO NetworkImpl:165  node # 4096
2024-10-27T22:49:50,714  INFO NetworkImpl:165  node # 16384
2024-10-27T22:49:50,717  INFO NetworkImpl:161  link # 1
2024-10-27T22:49:50,717  INFO NetworkImpl:161  link # 4
2024-10-27T22:49:50,717  INFO NetworkImpl:161  link # 16
2024-10-27T22:49:50,717  INFO NetworkImpl:161  link # 64
2024-10-27T22:49:50,717  INFO NetworkImpl:161  link # 256
2024-10-27T22:49:50,718  INFO NetworkImpl:161  link # 1024
2024-10-27T22:49:50,722  INFO NetworkImpl:161  link # 4096
2024-10-27T22:49:50,739  INFO NetworkImpl:161  link # 16384
2024-10-27T22:49:50,800  INFO RandomizingTimeDistanceTravelDisutilityFactory:86  sigma: 3.0; resulting normalization: 0.011108996538242306
2024-10-27T22:49:50,803  INFO RandomizingTimeDistanceTravelDisutilityFactory:86  sigma: 3.0; resulting normalization: 0.011108996538242306
2024-10-27T22:49:50,807  INFO Counter:75 [PersonPrepareForSim] handled person # 0
2024-10-27T22:49:50,856  INFO MobsimListenerManager:50 calling addQueueSimulationListener
2024-10-27T22:49:50,856  INFO MobsimListenerManager:54   assigned class org.matsim.core.mobsim.framework.listeners.MobsimListener to interface org.matsim.core.mobsim.framework.listeners.MobsimAfterSimStepListener
2024-10-27T22:49:50,856  INFO MobsimListenerManager:54   assigned class org.matsim.core.mobsim.framework.listeners.MobsimListener to interface org.matsim.core.mobsim.framework.listeners.MobsimListener
2024-10-27T22:49:50,856  INFO MobsimListenerManager:54   assigned class org.matsim.core.mobsim.framework.listeners.MobsimListener to interface org.matsim.core.mobsim.framework.listeners.MobsimBeforeCleanupListener
2024-10-27T22:49:50,856  INFO MobsimListenerManager:54   assigned class org.matsim.core.mobsim.framework.listeners.MobsimListener to interface org.matsim.vis.snapshotwriters.SnapshotWriterManager
2024-10-27T22:49:50,856  INFO MobsimListenerManager:54   assigned class org.matsim.core.mobsim.framework.listeners.MobsimListener to interface org.matsim.core.mobsim.framework.listeners.MobsimInitializedListener
2024-10-27T22:49:50,862  INFO QSimProvider:131 Added MobsimEngine class org.matsim.core.mobsim.qsim.ActivityEngineDefaultImpl
2024-10-27T22:49:50,862  INFO QSimProvider:137 Added Activityhandler class org.matsim.core.mobsim.qsim.ActivityEngineDefaultImpl
2024-10-27T22:49:50,898  WARN QueueWithBuffer:500 Link 10269271_r_0 too small: enlarge storage capacity from: 3.063788877468633 Vehicles to: 4.199943919529918 Vehicles.  This is not fatal, but modifies the traffic flow dynamics.
2024-10-27T22:49:50,901  WARN QueueWithBuffer:500 Link 10269271_r_1 too small: enlarge storage capacity from: 24.081177157224804 Vehicles to: 33.011280353029 Vehicles.  This is not fatal, but modifies the traffic flow dynamics.
2024-10-27T22:49:50,902  WARN QueueWithBuffer:500 Link 1044796110_0 too small: enlarge storage capacity from: 0.9108689390432573 Vehicles to: 4.956645143293725 Vehicles.  This is not fatal, but modifies the traffic flow dynamics.
2024-10-27T22:49:50,902  WARN QueueWithBuffer:500 Link 1044796110_r_0 too small: enlarge storage capacity from: 0.9108689390432573 Vehicles to: 4.956645143293725 Vehicles.  This is not fatal, but modifies the traffic flow dynamics.
2024-10-27T22:49:50,902  WARN QueueWithBuffer:500 Link 104502500_0-104502500_1 too small: enlarge storage capacity from: 1.66066676272045 Vehicles to: 1.9259121484327444 Vehicles.  This is not fatal, but modifies the traffic flow dynamics.
2024-10-27T22:49:50,902  WARN QueueWithBuffer:500 Link 104502500_12-104502500_13-104502500_14-104502500_15 too small: enlarge storage capacity from: 2.7661852745955513 Vehicles to: 3.2080065337323416 Vehicles.  This is not fatal, but modifies the traffic flow dynamics.
2024-10-27T22:49:50,902  WARN QueueWithBuffer:500 Link 104502500_16 too small: enlarge storage capacity from: 8.894301453182369 Vehicles to: 10.314919046398998 Vehicles.  This is not fatal, but modifies the traffic flow dynamics.
2024-10-27T22:49:50,902  WARN QueueWithBuffer:500 Link 104502500_17-104502500_18-104502500_19 too small: enlarge storage capacity from: 7.343143456391086 Vehicles to: 8.516006647342442 Vehicles.  This is not fatal, but modifies the traffic flow dynamics.
2024-10-27T22:49:50,902  WARN QueueWithBuffer:500 Link 104502500_2-104502500_3 too small: enlarge storage capacity from: 1.5135976063839998 Vehicles to: 1.755352779625889 Vehicles.  This is not fatal, but modifies the traffic flow dynamics.
2024-10-27T22:49:50,902  WARN QueueWithBuffer:500 Link 104502500_20-104502500_21-104502500_22-104502500_23 too small: enlarge storage capacity from: 1.2382165387811355 Vehicles to: 1.435987235947567 Vehicles.  This is not fatal, but modifies the traffic flow dynamics.
2024-10-27T22:49:50,902  WARN QueueWithBuffer:500 Link 104502500_4-104502500_5 too small: enlarge storage capacity from: 9.9895609773498 Vehicles to: 11.585115855676504 Vehicles.  This is not fatal, but modifies the traffic flow dynamics.
2024-10-27T22:49:50,902  WARN QueueWithBuffer:503 Additional warnings of this type are suppressed.
2024-10-27T22:49:51,116  INFO QSimProvider:143 Added DepartureHandler class org.matsim.core.mobsim.qsim.qnetsimengine.VehicularDepartureHandler
2024-10-27T22:49:51,116  INFO QSimProvider:131 Added MobsimEngine class org.matsim.core.mobsim.qsim.qnetsimengine.QNetsimEngineWithThreadpool
2024-10-27T22:49:51,117  INFO QSimProvider:131 Added MobsimEngine class org.matsim.core.mobsim.qsim.DefaultTeleportationEngine
2024-10-27T22:49:51,117  INFO QSimProvider:143 Added DepartureHandler class org.matsim.core.mobsim.qsim.DefaultTeleportationEngine
2024-10-27T22:49:51,117  INFO QSimProvider:149 Added AgentSource class org.matsim.core.mobsim.qsim.agents.PopulationAgentSource
2024-10-27T22:49:51,117  INFO MobsimListenerManager:50 calling addQueueSimulationListener
2024-10-27T22:49:51,117  INFO MobsimListenerManager:54   assigned class org.matsim.core.mobsim.framework.listeners.MobsimListener to interface org.matsim.core.mobsim.qsim.messagequeueengine.MessageQueueEngine
2024-10-27T22:49:51,117  INFO MobsimListenerManager:54   assigned class org.matsim.core.mobsim.framework.listeners.MobsimListener to interface org.matsim.core.mobsim.framework.listeners.MobsimListener
2024-10-27T22:49:51,117  INFO MobsimListenerManager:54   assigned class org.matsim.core.mobsim.framework.listeners.MobsimListener to interface org.matsim.core.mobsim.framework.listeners.MobsimBeforeSimStepListener
2024-10-27T22:49:51,117  INFO QSimProvider:155 Added MobsimListener class org.matsim.core.mobsim.qsim.messagequeueengine.MessageQueueEngine
2024-10-27T22:49:51,117  INFO QSimProvider:149 Added AgentSource class org.matsim.freight.carriers.controler.FreightAgentSource
2024-10-27T22:49:51,117  INFO MobsimListenerManager:50 calling addQueueSimulationListener
2024-10-27T22:49:51,117  INFO MobsimListenerManager:54   assigned class org.matsim.core.mobsim.framework.listeners.MobsimListener to interface org.matsim.core.mobsim.framework.listeners.MobsimListener
2024-10-27T22:49:51,117  INFO MobsimListenerManager:54   assigned class org.matsim.core.mobsim.framework.listeners.MobsimListener to interface org.matsim.freight.carriers.controler.WithinDayActivityReScheduling
2024-10-27T22:49:51,117  INFO MobsimListenerManager:54   assigned class org.matsim.core.mobsim.framework.listeners.MobsimListener to interface org.matsim.core.mobsim.framework.listeners.MobsimBeforeSimStepListener
2024-10-27T22:49:51,117  INFO QSimProvider:155 Added MobsimListener class org.matsim.freight.carriers.controler.WithinDayActivityReScheduling
2024-10-27T22:49:51,136  WARN FreightAgentSource:86 inserting vehicleId=freight_Carrier1_veh_van_5_1 into mobsim.
2024-10-27T22:49:51,136  INFO VehicleUtils:395 adding scenario element for allvehicles container
2024-10-27T22:49:51,136  INFO Counter:70 [VehiclesImpl] added vehicle # 1
2024-10-27T22:49:51,136  INFO PopulationUtils:1247 adding scenario element for allpersons container
2024-10-27T22:49:51,137  INFO PopulationImpl:107  person # 1
2024-10-27T22:49:51,190  INFO AbstractQNetsimEngine:426 Assigned 59050 nodes and 103753 links to QSimEngineRunner #0
2024-10-27T22:49:51,197  INFO EventsManagerImpl:115  event # 1
2024-10-27T22:49:51,199  INFO EventsManagerImpl:115  event # 4
2024-10-27T22:49:51,200  INFO AbstractQNetsimEngine:364 SIMULATION (QNetsimEngine) AT 00:00:00 : #links=1 #nodes=0
2024-10-27T22:49:51,201  INFO ColdEmissionAnalysisModule:320 try reading detailed values
2024-10-27T22:49:51,201  INFO ColdEmissionAnalysisModule:321  This message given only once.
2024-10-27T22:49:51,201  INFO ColdEmissionAnalysisModule:322  Future occurences of this logging statement are suppressed.
2024-10-27T22:49:51,201  INFO ColdEmissionAnalysisModule:343 try to rewrite from HBEFA3 to HBEFA4 and lookup in detailed table again
2024-10-27T22:49:51,201  INFO ColdEmissionAnalysisModule:344  This message given only once.
2024-10-27T22:49:51,201  INFO ColdEmissionAnalysisModule:345  Future occurences of this logging statement are suppressed.
2024-10-27T22:49:51,202  INFO QSim:566 SIMULATION (NEW QSim) AT 00:00:00 : #Veh=1 lost=0 simT=0.0s realT=0s; (s/r): 0.0
2024-10-27T22:49:51,203  WARN ColdEmissionAnalysisModule:364 did not find emission factor for efkey=LIGHT_COMMERCIAL_VEHICLE; NOx; 13; 1; petrol; &lt;1,6L; LCV-P-Euro-3
2024-10-27T22:49:51,203  WARN ColdEmissionAnalysisModule:365  re-written to LIGHT_COMMERCIAL_VEHICLE; NOx; 13; 1; petrol; average; average
2024-10-27T22:49:51,203  WARN ColdEmissionAnalysisModule:366 will try it with '<technology>; average; average'
2024-10-27T22:49:51,203  WARN ColdEmissionAnalysisModule:367  This message given only once.
2024-10-27T22:49:51,203  WARN ColdEmissionAnalysisModule:368  Future occurences of this logging statement are suppressed.
2024-10-27T22:49:51,203  WARN ColdEmissionAnalysisModule:380 That also did not work.
2024-10-27T22:49:51,203  WARN ColdEmissionAnalysisModule:381 Now trying with setting to vehicle attributes to "average; average; average" and try it with the average table
2024-10-27T22:49:51,203  WARN ColdEmissionAnalysisModule:382  This message given only once.
2024-10-27T22:49:51,203  WARN ColdEmissionAnalysisModule:383  Future occurences of this logging statement are suppressed.
2024-10-27T22:49:51,203  INFO ColdEmissionAnalysisModule:320 try reading detailed values
2024-10-27T22:49:51,203  INFO ColdEmissionAnalysisModule:321  This message given only once.
2024-10-27T22:49:51,203  INFO ColdEmissionAnalysisModule:322  Future occurences of this logging statement are suppressed.
2024-10-27T22:49:51,203  INFO ColdEmissionAnalysisModule:343 try to rewrite from HBEFA3 to HBEFA4 and lookup in detailed table again
2024-10-27T22:49:51,204  INFO ColdEmissionAnalysisModule:344  This message given only once.
2024-10-27T22:49:51,204  INFO ColdEmissionAnalysisModule:345  Future occurences of this logging statement are suppressed.
2024-10-27T22:49:51,204  WARN ColdEmissionAnalysisModule:364 did not find emission factor for efkey=LIGHT_COMMERCIAL_VEHICLE; PM2_5; 13; 1; petrol; &lt;1,6L; LCV-P-Euro-3
2024-10-27T22:49:51,204  WARN ColdEmissionAnalysisModule:365  re-written to LIGHT_COMMERCIAL_VEHICLE; PM2_5; 13; 1; petrol; average; average
2024-10-27T22:49:51,204  WARN ColdEmissionAnalysisModule:366 will try it with '<technology>; average; average'
2024-10-27T22:49:51,204  WARN ColdEmissionAnalysisModule:367  This message given only once.
2024-10-27T22:49:51,204  WARN ColdEmissionAnalysisModule:368  Future occurences of this logging statement are suppressed.
2024-10-27T22:49:51,204  WARN ColdEmissionAnalysisModule:380 That also did not work.
2024-10-27T22:49:51,204  WARN ColdEmissionAnalysisModule:381 Now trying with setting to vehicle attributes to "average; average; average" and try it with the average table
2024-10-27T22:49:51,204  WARN ColdEmissionAnalysisModule:382  This message given only once.
2024-10-27T22:49:51,204  WARN ColdEmissionAnalysisModule:383  Future occurences of this logging statement are suppressed.
2024-10-27T22:49:51,206  WARN WarmEmissionHandler:126 At time 0.0, vehicle freight_Carrier1_veh_van_5_1 enters and leaves traffic without having entered link 333784188_0. Thus, no emissions are calculated for travel along this link.
2024-10-27T22:49:51,209  INFO EventsManagerImpl:115  event # 16
2024-10-27T22:49:51,212  INFO WarmEmissionAnalysisModule:458 try reading detailed values
2024-10-27T22:49:51,212  INFO WarmEmissionAnalysisModule:459  This message given only once.
2024-10-27T22:49:51,212  INFO WarmEmissionAnalysisModule:460  Future occurences of this logging statement are suppressed.
2024-10-27T22:49:51,212  INFO WarmEmissionAnalysisModule:469 try to rewrite from HBEFA3 to HBEFA4 and lookup in detailed table again
2024-10-27T22:49:51,212  INFO WarmEmissionAnalysisModule:470  This message given only once.
2024-10-27T22:49:51,212  INFO WarmEmissionAnalysisModule:471  Future occurences of this logging statement are suppressed.
2024-10-27T22:49:51,212  WARN WarmEmissionAnalysisModule:490 did not find emission factor for efkey=LIGHT_COMMERCIAL_VEHICLE; NOx; URB/Access/30; FREEFLOW; petrol; &lt;1,6L; LCV-P-Euro-3
2024-10-27T22:49:51,212  WARN WarmEmissionAnalysisModule:491  re-written to LIGHT_COMMERCIAL_VEHICLE; NOx; URB/Access/30; FREEFLOW; petrol; average; average
2024-10-27T22:49:51,212  WARN WarmEmissionAnalysisModule:492 will try it with '<technology>; average; average'
2024-10-27T22:49:51,212  WARN WarmEmissionAnalysisModule:493  This message given only once.
2024-10-27T22:49:51,212  WARN WarmEmissionAnalysisModule:494  Future occurences of this logging statement are suppressed.
2024-10-27T22:49:51,212  WARN WarmEmissionAnalysisModule:506 That also did not work.
2024-10-27T22:49:51,212  WARN WarmEmissionAnalysisModule:507 Now trying with setting to vehicle attributes to "average; average; average" and try it with the average table
2024-10-27T22:49:51,212  WARN WarmEmissionAnalysisModule:508  This message given only once.
2024-10-27T22:49:51,212  WARN WarmEmissionAnalysisModule:509  Future occurences of this logging statement are suppressed.
2024-10-27T22:49:51,213  INFO WarmEmissionAnalysisModule:458 try reading detailed values
2024-10-27T22:49:51,213  INFO WarmEmissionAnalysisModule:459  This message given only once.
2024-10-27T22:49:51,213  INFO WarmEmissionAnalysisModule:460  Future occurences of this logging statement are suppressed.
2024-10-27T22:49:51,213  INFO WarmEmissionAnalysisModule:469 try to rewrite from HBEFA3 to HBEFA4 and lookup in detailed table again
2024-10-27T22:49:51,213  INFO WarmEmissionAnalysisModule:470  This message given only once.
2024-10-27T22:49:51,213  INFO WarmEmissionAnalysisModule:471  Future occurences of this logging statement are suppressed.
2024-10-27T22:49:51,213  WARN WarmEmissionAnalysisModule:490 did not find emission factor for efkey=LIGHT_COMMERCIAL_VEHICLE; PM_non_exhaust; URB/Access/30; FREEFLOW; petrol; &lt;1,6L; LCV-P-Euro-3
2024-10-27T22:49:51,213  WARN WarmEmissionAnalysisModule:491  re-written to LIGHT_COMMERCIAL_VEHICLE; PM_non_exhaust; URB/Access/30; FREEFLOW; petrol; average; average
2024-10-27T22:49:51,213  WARN WarmEmissionAnalysisModule:492 will try it with '<technology>; average; average'
2024-10-27T22:49:51,213  WARN WarmEmissionAnalysisModule:493  This message given only once.
2024-10-27T22:49:51,213  WARN WarmEmissionAnalysisModule:494  Future occurences of this logging statement are suppressed.
2024-10-27T22:49:51,213  WARN WarmEmissionAnalysisModule:506 That also did not work.
2024-10-27T22:49:51,213  WARN WarmEmissionAnalysisModule:507 Now trying with setting to vehicle attributes to "average; average; average" and try it with the average table
2024-10-27T22:49:51,213  WARN WarmEmissionAnalysisModule:508  This message given only once.
2024-10-27T22:49:51,213  WARN WarmEmissionAnalysisModule:509  Future occurences of this logging statement are suppressed.
2024-10-27T22:49:51,215  WARN WarmEmissionHandler:126 At time 11.0, vehicle freight_Carrier1_veh_van_5_1 enters and leaves traffic without having entered link 333784188_1. Thus, no emissions are calculated for travel along this link.
2024-10-27T22:49:51,216  WARN WarmEmissionHandler:126 At time 12.0, vehicle freight_Carrier1_veh_van_5_1 enters and leaves traffic without having entered link 333784188_1. Thus, no emissions are calculated for travel along this link.
2024-10-27T22:49:51,217  WARN WarmEmissionHandler:126 At time 13.0, vehicle freight_Carrier1_veh_van_5_1 enters and leaves traffic without having entered link 333784188_1. Thus, no emissions are calculated for travel along this link.
2024-10-27T22:49:51,217  INFO EventsManagerImpl:115  event # 64
2024-10-27T22:49:51,217  WARN WarmEmissionHandler:126 At time 14.0, vehicle freight_Carrier1_veh_van_5_1 enters and leaves traffic without having entered link 333784188_1. Thus, no emissions are calculated for travel along this link.
2024-10-27T22:49:51,218  WARN WarmEmissionHandler:126 At time 15.0, vehicle freight_Carrier1_veh_van_5_1 enters and leaves traffic without having entered link 333784188_1. Thus, no emissions are calculated for travel along this link.
2024-10-27T22:49:51,218  WARN WarmEmissionHandler:126 At time 16.0, vehicle freight_Carrier1_veh_van_5_1 enters and leaves traffic without having entered link 333784188_1. Thus, no emissions are calculated for travel along this link.
2024-10-27T22:49:51,219  WARN WarmEmissionHandler:126 At time 17.0, vehicle freight_Carrier1_veh_van_5_1 enters and leaves traffic without having entered link 333784188_1. Thus, no emissions are calculated for travel along this link.
2024-10-27T22:49:51,222  WARN WarmEmissionHandler:126 At time 28.0, vehicle freight_Carrier1_veh_van_5_1 enters and leaves traffic without having entered link 333784188_r_2. Thus, no emissions are calculated for travel along this link.
2024-10-27T22:49:51,222  WARN WarmEmissionHandler:126 At time 29.0, vehicle freight_Carrier1_veh_van_5_1 enters and leaves traffic without having entered link 333784188_r_2. Thus, no emissions are calculated for travel along this link.
2024-10-27T22:49:51,224  WARN WarmEmissionHandler:126 At time 34.0, vehicle freight_Carrier1_veh_van_5_1 enters and leaves traffic without having entered link 333784188_r_3. Thus, no emissions are calculated for travel along this link.
2024-10-27T22:49:51,224  WARN WarmEmissionHandler:126 At time 35.0, vehicle freight_Carrier1_veh_van_5_1 enters and leaves traffic without having entered link 333784188_r_3. Thus, no emissions are calculated for travel along this link.
2024-10-27T22:49:51,225  WARN WarmEmissionHandler:126 At time 36.0, vehicle freight_Carrier1_veh_van_5_1 enters and leaves traffic without having entered link 333784188_r_3. Thus, no emissions are calculated for travel along this link.
2024-10-27T22:49:51,225  WARN WarmEmissionHandler:126 At time 37.0, vehicle freight_Carrier1_veh_van_5_1 enters and leaves traffic without having entered link 333784188_r_3. Thus, no emissions are calculated for travel along this link.
2024-10-27T22:49:51,225  WARN WarmEmissionHandler:126 At time 38.0, vehicle freight_Carrier1_veh_van_5_1 enters and leaves traffic without having entered link 333784188_r_3. Thus, no emissions are calculated for travel along this link.
2024-10-27T22:49:51,226  WARN WarmEmissionHandler:126 At time 39.0, vehicle freight_Carrier1_veh_van_5_1 enters and leaves traffic without having entered link 333784188_r_3. Thus, no emissions are calculated for travel along this link.
2024-10-27T22:49:51,227  WARN WarmEmissionHandler:126 At time 44.0, vehicle freight_Carrier1_veh_van_5_1 enters and leaves traffic without having entered link 333784188_0. Thus, no emissions are calculated for travel along this link.
2024-10-27T22:49:51,229  INFO EventsManagerImpl:115  event # 256
2024-10-27T22:49:51,229  WARN WarmEmissionHandler:126 At time 48.0, vehicle freight_Carrier1_veh_van_5_1 enters and leaves traffic without having entered link 333784189_r_3. Thus, no emissions are calculated for travel along this link.
2024-10-27T22:49:51,230  WARN WarmEmissionHandler:126 At time 49.0, vehicle freight_Carrier1_veh_van_5_1 enters and leaves traffic without having entered link 333784189_r_3. Thus, no emissions are calculated for travel along this link.
2024-10-27T22:49:51,231  WARN WarmEmissionHandler:126 At time 53.0, vehicle freight_Carrier1_veh_van_5_1 enters and leaves traffic without having entered link 333784189_1. Thus, no emissions are calculated for travel along this link.
2024-10-27T22:49:51,231  WARN WarmEmissionHandler:126 At time 54.0, vehicle freight_Carrier1_veh_van_5_1 enters and leaves traffic without having entered link 333784189_1. Thus, no emissions are calculated for travel along this link.
2024-10-27T22:49:51,233  WARN WarmEmissionHandler:126 At time 59.0, vehicle freight_Carrier1_veh_van_5_1 enters and leaves traffic without having entered link 333784189_2. Thus, no emissions are calculated for travel along this link.
2024-10-27T22:49:51,233  WARN WarmEmissionHandler:126 At time 60.0, vehicle freight_Carrier1_veh_van_5_1 enters and leaves traffic without having entered link 333784189_2. Thus, no emissions are calculated for travel along this link.
[...]
2024-10-27T22:49:56,443  WARN WarmEmissionHandler:126 At time 34.0, vehicle freight_Carrier1_veh_van_5_1 enters and leaves traffic without having entered link 333784188_r_3. Thus, no emissions are calculated for travel along this link.
2024-10-27T22:49:56,443  WARN WarmEmissionHandler:126 At time 35.0, vehicle freight_Carrier1_veh_van_5_1 enters and leaves traffic without having entered link 333784188_r_3. Thus, no emissions are calculated for travel along this link.
2024-10-27T22:49:56,443  WARN WarmEmissionHandler:126 At time 36.0, vehicle freight_Carrier1_veh_van_5_1 enters and leaves traffic without having entered link 333784188_r_3. Thus, no emissions are calculated for travel along this link.
2024-10-27T22:49:56,444  WARN WarmEmissionHandler:126 At time 37.0, vehicle freight_Carrier1_veh_van_5_1 enters and leaves traffic without having entered link 333784188_r_3. Thus, no emissions are calculated for travel along this link.
2024-10-27T22:49:56,444  WARN WarmEmissionHandler:126 At time 38.0, vehicle freight_Carrier1_veh_van_5_1 enters and leaves traffic without having entered link 333784188_r_3. Thus, no emissions are calculated for travel along this link.
2024-10-27T22:49:56,444  WARN WarmEmissionHandler:126 At time 39.0, vehicle freight_Carrier1_veh_van_5_1 enters and leaves traffic without having entered link 333784188_r_3. Thus, no emissions are calculated for travel along this link.
2024-10-27T22:49:56,444  WARN WarmEmissionHandler:126 At time 44.0, vehicle freight_Carrier1_veh_van_5_1 enters and leaves traffic without having entered link 333784188_0. Thus, no emissions are calculated for travel along this link.
2024-10-27T22:49:56,445  WARN WarmEmissionHandler:126 At time 48.0, vehicle freight_Carrier1_veh_van_5_1 enters and leaves traffic without having entered link 333784189_r_3. Thus, no emissions are calculated for travel along this link.
2024-10-27T22:49:56,445  WARN WarmEmissionHandler:126 At time 49.0, vehicle freight_Carrier1_veh_van_5_1 enters and leaves traffic without having entered link 333784189_r_3. Thus, no emissions are calculated for travel along this link.
2024-10-27T22:49:56,445  WARN WarmEmissionHandler:126 At time 53.0, vehicle freight_Carrier1_veh_van_5_1 enters and leaves traffic without having entered link 333784189_1. Thus, no emissions are calculated for travel along this link.
2024-10-27T22:49:56,445  WARN WarmEmissionHandler:126 At time 54.0, vehicle freight_Carrier1_veh_van_5_1 enters and leaves traffic without having entered link 333784189_1. Thus, no emissions are calculated for travel along this link.
2024-10-27T22:49:56,446  WARN WarmEmissionHandler:126 At time 59.0, vehicle freight_Carrier1_veh_van_5_1 enters and leaves traffic without having entered link 333784189_2. Thus, no emissions are calculated for travel along this link.
2024-10-27T22:49:56,446  WARN WarmEmissionHandler:126 At time 60.0, vehicle freight_Carrier1_veh_van_5_1 enters and leaves traffic without having entered link 333784189_2. Thus, no emissions are calculated for travel along this link.
2024-10-27T22:49:56,447  WARN WarmEmissionHandler:126 At time 65.0, vehicle freight_Carrier1_veh_van_5_1 enters and leaves traffic without having entered link 333784189_r_2. Thus, no emissions are calculated for travel along this link.
2024-10-27T22:49:56,447  WARN WarmEmissionHandler:126 At time 66.0, vehicle freight_Carrier1_veh_van_5_1 enters and leaves traffic without having entered link 333784189_r_2. Thus, no emissions are calculated for travel along this link.
2024-10-27T22:49:56,447  WARN WarmEmissionHandler:126 At time 67.0, vehicle freight_Carrier1_veh_van_5_1 enters and leaves traffic without having entered link 333784189_r_2. Thus, no emissions are calculated for travel along this link.
2024-10-27T22:49:56,447  WARN WarmEmissionHandler:126 At time 68.0, vehicle freight_Carrier1_veh_van_5_1 enters and leaves traffic without having entered link 333784189_r_2. Thus, no emissions are calculated for travel along this link.
2024-10-27T22:49:56,523  WARN WarmEmissionHandler:126 At time 1301.0, vehicle freight_Carrier1_veh_van_5_1 enters and leaves traffic without having entered link 27566523_r_9. Thus, no emissions are calculated for travel along this link.
2024-10-27T22:49:56,524  WARN WarmEmissionHandler:126 At time 1302.0, vehicle freight_Carrier1_veh_van_5_1 enters and leaves traffic without having entered link 27566523_r_9. Thus, no emissions are calculated for travel along this link.
2024-10-27T22:49:56,524  WARN WarmEmissionHandler:126 At time 1308.0, vehicle freight_Carrier1_veh_van_5_1 enters and leaves traffic without having entered link 27566523_r_10. Thus, no emissions are calculated for travel along this link.
2024-10-27T22:49:56,525  WARN WarmEmissionHandler:126 At time 1309.0, vehicle freight_Carrier1_veh_van_5_1 enters and leaves traffic without having entered link 27566523_r_10. Thus, no emissions are calculated for travel along this link.
2024-10-27T22:49:56,525  WARN WarmEmissionHandler:126 At time 1310.0, vehicle freight_Carrier1_veh_van_5_1 enters and leaves traffic without having entered link 27566523_r_10. Thus, no emissions are calculated for travel along this link.
2024-10-27T22:49:56,525  WARN WarmEmissionHandler:126 At time 1311.0, vehicle freight_Carrier1_veh_van_5_1 enters and leaves traffic without having entered link 27566523_r_10. Thus, no emissions are calculated for travel along this link.
2024-10-27T22:49:56,525  WARN WarmEmissionHandler:126 At time 1317.0, vehicle freight_Carrier1_veh_van_5_1 enters and leaves traffic without having entered link 27566523_10. Thus, no emissions are calculated for travel along this link.
2024-10-27T22:49:56,526  WARN WarmEmissionHandler:126 At time 1321.0, vehicle freight_Carrier1_veh_van_5_1 enters and leaves traffic without having entered link 27566523_11. Thus, no emissions are calculated for travel along this link.
2024-10-27T22:49:56,526  WARN WarmEmissionHandler:126 At time 1322.0, vehicle freight_Carrier1_veh_van_5_1 enters and leaves traffic without having entered link 27566523_11. Thus, no emissions are calculated for travel along this link.
2024-10-27T22:49:56,526  WARN WarmEmissionHandler:126 At time 1323.0, vehicle freight_Carrier1_veh_van_5_1 enters and leaves traffic without having entered link 27566523_11. Thus, no emissions are calculated for travel along this link.
2024-10-27T22:49:56,635  INFO AbstractQNetsimEngine:364 SIMULATION (QNetsimEngine) AT 01:00:00 : #links=1 #nodes=1
2024-10-27T22:49:56,635  INFO QSim:566 SIMULATION (NEW QSim) AT 01:00:00 : #Veh=1 lost=0 simT=3600.0s realT=0s; (s/r): Infinity
2024-10-27T22:49:56,805  INFO AbstractQNetsimEngine:364 SIMULATION (QNetsimEngine) AT 02:00:00 : #links=0 #nodes=2
2024-10-27T22:49:56,805  INFO QSim:566 SIMULATION (NEW QSim) AT 02:00:00 : #Veh=1 lost=0 simT=7200.0s realT=0s; (s/r): Infinity
2024-10-27T22:49:56,945  INFO AbstractController$9:237 ### ITERATION 5 fires after mobsim event
2024-10-27T22:49:56,945  INFO ControlerListenerManagerImpl:269 calling notifyAfterMobsim on org.matsim.analysis.LegTimesControlerListener with priority 0.0
2024-10-27T22:49:56,945  INFO Gbl:196 Thread performance: Thread=class org.matsim.core.events.SimStepParallelEventsManagerImpl$ProcessEventsRunnable0  cpu-time=0.0sec
2024-10-27T22:49:56,946  INFO LegTimesControlerListener:51 [5] average trip (probably: leg) duration is: 100 seconds = 00:01:40
2024-10-27T22:49:56,946  INFO ControlerListenerManagerImpl:269 calling notifyAfterMobsim on org.matsim.core.events.MobsimScopeEventHandling with priority 0.0
2024-10-27T22:49:56,946  INFO ControlerListenerManagerImpl:269 calling notifyAfterMobsim on org.matsim.core.scoring.EventsToActivities$1 with priority 0.0
2024-10-27T22:49:56,946  INFO ControlerListenerManagerImpl:272 [it.5] all ControlerAfterMobsimListeners called.
2024-10-27T22:49:56,946  INFO AbstractController$4:162 ### ITERATION 5 fires scoring event
2024-10-27T22:49:56,946  INFO ControlerListenerManagerImpl:197 calling notifyScoring on org.matsim.core.scoring.PlansScoringImpl with priority 0.0
2024-10-27T22:49:56,946  INFO NewScoreAssignerImpl:58 it: 5 msaStart: null
2024-10-27T22:49:56,946  INFO ControlerListenerManagerImpl:205 calling notifyScoring on org.matsim.freight.carriers.controler.CarrierControlerListener with priority 0.0
2024-10-27T22:49:56,946  WARN CarrierAgent:182 score=-2405.911424059447
2024-10-27T22:49:56,946  INFO ControlerListenerManagerImpl:209 [it.5] all ControlerScoringListeners called.
2024-10-27T22:49:56,946  INFO AbstractController$5:170 ### ITERATION 5 fires iteration end event
2024-10-27T22:49:56,946  INFO ControlerListenerManagerImpl:172 calling notifyIterationEnds on org.matsim.core.controler.corelisteners.EventsHandlingImpl with priority 0.0
2024-10-27T22:49:56,946  INFO EventsManagerImpl:159 removing Event-Handler: org.matsim.core.events.algorithms.EventWriterXML
2024-10-27T22:49:56,946  INFO EventsManagerImpl:159 removing Event-Handler: org.matsim.core.events.algorithms.EventWriterXML
2024-10-27T22:49:56,946  INFO ControlerListenerManagerImpl:172 calling notifyIterationEnds on org.matsim.core.scoring.PlansScoringImpl with priority 0.0
2024-10-27T22:49:56,946  INFO ControlerListenerManagerImpl:180 calling notifyIterationEnds on org.matsim.counts.CountsControlerListener with priority 0.0
2024-10-27T22:49:56,946  INFO ControlerListenerManagerImpl:180 calling notifyIterationEnds on org.matsim.analysis.ModeStatsControlerListener with priority 0.0
2024-10-27T22:49:56,948  INFO ModeStatsControlerListener:133 Mode shares over all 0.0 trips found. MainModeIdentifier: class org.matsim.core.router.DefaultAnalysisMainModeIdentifier
2024-10-27T22:49:56,992  INFO ControlerListenerManagerImpl:180 calling notifyIterationEnds on org.matsim.analysis.ScoreStatsControlerListener with priority 0.0
2024-10-27T22:49:56,992  INFO ScoreStatsControlerListener:154 -- avg. score of the executed plan of each agent: NaN
2024-10-27T22:49:56,992  INFO ScoreStatsControlerListener:155 -- avg. score of the worst plan of each agent: NaN
2024-10-27T22:49:56,992  INFO ScoreStatsControlerListener:156 -- avg. of the avg. plan score per agent: NaN
2024-10-27T22:49:56,992  INFO ScoreStatsControlerListener:157 -- avg. score of the best plan of each agent: NaN
2024-10-27T22:49:57,009  INFO ControlerListenerManagerImpl:180 calling notifyIterationEnds on org.matsim.analysis.IterationTravelStatsControlerListener with priority 0.0
2024-10-27T22:49:57,009  INFO TravelDistanceStats:115 -- average leg distance per plan (executed plans only): 0.0 meters
2024-10-27T22:49:57,009  INFO TravelDistanceStats:116 average leg distance per Person (executed plans only): NaN meters (statistic on all 0 legs which have a finite distance)
2024-10-27T22:49:57,009  INFO TravelDistanceStats:117 -- average trip distance per plan (executed plans only): 0.0 meters
2024-10-27T22:49:57,009  INFO TravelDistanceStats:118 average trip distance per Person (executed plans only): NaN meters (statistic on all 0 trips which have a finite distance)
2024-10-27T22:49:57,009  INFO TravelDistanceStats:119 (TravelDistanceStats takes an average over all legs where the simulation reports travelled (network) distances
2024-10-27T22:49:57,009  INFO TravelDistanceStats:120 (and teleported legs whose route contains a distance.)
2024-10-27T22:49:57,047  INFO ActivityWriter:39 Writing all Activities to activitiescsv
2024-10-27T22:49:57,047  INFO ActivityWriter:59 ...done
2024-10-27T22:49:57,048  INFO ControlerListenerManagerImpl:180 calling notifyIterationEnds on org.matsim.analysis.LegHistogramListener with priority 0.0
2024-10-27T22:49:57,048  INFO LegHistogramListener:73 number of legs:	0	100%
2024-10-27T22:49:57,072  INFO ControlerListenerManagerImpl:180 calling notifyIterationEnds on org.matsim.analysis.LinkStatsControlerListener with priority 0.0
2024-10-27T22:49:57,073  INFO ControlerListenerManagerImpl:180 calling notifyIterationEnds on freight_emission.RunFreightEmissionScenario$1$1 with priority 0.0
2024-10-27T22:49:57,073  INFO CarrierPlanXmlWriterV2_1:84 write carrier plans
2024-10-27T22:49:57,075  INFO CarrierPlanXmlWriterV2_1:99 done
2024-10-27T22:49:57,122  INFO ControlerListenerManagerImpl:180 calling notifyIterationEnds on org.matsim.freight.carriers.usecases.analysis.CarrierScoreStats with priority 0.0
2024-10-27T22:49:57,122  INFO CarrierScoreStats:181 -- avg. score of the executed plan of each agent: -2405.911424059447
2024-10-27T22:49:57,122  INFO CarrierScoreStats:182 -- avg. score of the worst plan of each agent: -2408.161621176555
2024-10-27T22:49:57,122  INFO CarrierScoreStats:183 -- avg. of the avg. plan score per agent: -2406.66148976515
2024-10-27T22:49:57,122  INFO CarrierScoreStats:184 -- avg. score of the best plan of each agent: -2405.911424059447
2024-10-27T22:49:57,139  INFO ControlerListenerManagerImpl:184 [it.5] all ControlerIterationEndsListeners called.
2024-10-27T22:49:57,168  INFO AbstractController:184 ### ITERATION 5 ENDS
2024-10-27T22:49:57,168  INFO AbstractController:185 ###################################################
2024-10-27T22:49:57,168  INFO MatsimRuntimeModifications:80 S H U T D O W N   ---   start shutdown.
2024-10-27T22:49:57,169  INFO ControlerListenerManagerImpl:128 calling notifyShutdown on org.matsim.core.controler.corelisteners.EventsHandlingImpl with priority 0.0
2024-10-27T22:49:57,169  INFO ControlerListenerManagerImpl:128 calling notifyShutdown on org.matsim.core.controler.corelisteners.DumpDataAtEndImpl with priority 0.0
2024-10-27T22:49:57,170  INFO Counter:75 [ParallelPopulationWriterV6] dumped person # 0
2024-10-27T22:49:57,170  INFO PopulationWriter:150 Population written to: ../../data/intermediate/test/freight_emission/outputs/output_plans.xml.gz
2024-10-27T22:49:57,170  INFO Counter:75 [PopulationWriter] dumped person # 0
2024-10-27T22:49:57,171  INFO NetworkWriter:70 Writing network to file: ../../data/intermediate/test/freight_emission/outputs/output_network.xml.gz...
2024-10-27T22:49:57,858  INFO NetworkWriter:73 done.
2024-10-27T22:49:57,860  INFO Config:550 setting context to [file:/D:/IdeaProjects/matsim-xp/src/main/]
2024-10-27T22:49:57,861  INFO Config:550 setting context to [file:/D:/IdeaProjects/matsim-xp/src/main/]
2024-10-27T22:49:57,863  INFO Config:550 setting context to [file:/D:/IdeaProjects/matsim-xp/src/main/]
2024-10-27T22:49:57,864  INFO Config:550 setting context to [file:/D:/IdeaProjects/matsim-xp/src/main/]
2024-10-27T22:49:57,864  INFO Config:550 setting context to [file:/D:/IdeaProjects/matsim-xp/src/main/]
2024-10-27T22:49:57,865  INFO Config:550 setting context to [file:/D:/IdeaProjects/matsim-xp/src/main/]
2024-10-27T22:49:57,866  INFO Config:550 setting context to [file:/D:/IdeaProjects/matsim-xp/src/main/]
2024-10-27T22:49:57,867  INFO Config:550 setting context to [file:/D:/IdeaProjects/matsim-xp/src/main/]
2024-10-27T22:49:57,867  INFO Config:550 setting context to [file:/D:/IdeaProjects/matsim-xp/src/main/]
2024-10-27T22:49:57,868  INFO Config:550 setting context to [file:/D:/IdeaProjects/matsim-xp/src/main/]
2024-10-27T22:49:57,869  INFO Config:550 setting context to [file:/D:/IdeaProjects/matsim-xp/src/main/]
2024-10-27T22:49:57,869  INFO Config:550 setting context to [file:/D:/IdeaProjects/matsim-xp/src/main/]
2024-10-27T22:49:57,870  INFO Config:550 setting context to [file:/D:/IdeaProjects/matsim-xp/src/main/]
2024-10-27T22:49:57,871  INFO Config:550 setting context to [file:/D:/IdeaProjects/matsim-xp/src/main/]
2024-10-27T22:49:57,871  INFO Config:550 setting context to [file:/D:/IdeaProjects/matsim-xp/src/main/]
2024-10-27T22:49:57,872  INFO Config:550 setting context to [file:/D:/IdeaProjects/matsim-xp/src/main/]
2024-10-27T22:49:57,874  INFO Config:550 setting context to [file:/D:/IdeaProjects/matsim-xp/src/main/]
2024-10-27T22:49:57,874  INFO Config:550 setting context to [file:/D:/IdeaProjects/matsim-xp/src/main/]
2024-10-27T22:49:57,875  INFO Config:550 setting context to [file:/D:/IdeaProjects/matsim-xp/src/main/]
2024-10-27T22:49:57,875  INFO Config:550 setting context to [file:/D:/IdeaProjects/matsim-xp/src/main/]
2024-10-27T22:49:57,876  INFO Config:550 setting context to [file:/D:/IdeaProjects/matsim-xp/src/main/]
2024-10-27T22:49:57,877  INFO Config:550 setting context to [file:/D:/IdeaProjects/matsim-xp/src/main/]
2024-10-27T22:49:57,880  INFO Config:550 setting context to [file:/D:/IdeaProjects/matsim-xp/src/main/]
2024-10-27T22:49:57,881  INFO Config:550 setting context to [file:/D:/IdeaProjects/matsim-xp/src/main/]
2024-10-27T22:49:57,882  INFO Config:550 setting context to [file:/D:/IdeaProjects/matsim-xp/src/main/]
2024-10-27T22:49:57,882  INFO Config:550 setting context to [file:/D:/IdeaProjects/matsim-xp/src/main/]
2024-10-27T22:49:57,883  INFO Config:550 setting context to [file:/D:/IdeaProjects/matsim-xp/src/main/]
2024-10-27T22:49:57,883  INFO Config:550 setting context to [file:/D:/IdeaProjects/matsim-xp/src/main/]
2024-10-27T22:49:57,884  INFO Config:550 setting context to [file:/D:/IdeaProjects/matsim-xp/src/main/]
2024-10-27T22:49:57,888  INFO MatsimVehicleWriter:49 about to write vehicles to: ../../data/intermediate/test/freight_emission/outputs/output_vehicles.xml.gz
2024-10-27T22:49:57,888  INFO VehicleWriterV2:64 about to write vehicles to: ../../data/intermediate/test/freight_emission/outputs/output_vehicles.xml.gz
2024-10-27T22:49:57,890  INFO MatsimVehicleWriter:49 about to write vehicles to: ../../data/intermediate/test/freight_emission/outputs/output_allVehicles.xml.gz
2024-10-27T22:49:57,890  INFO VehicleWriterV2:64 about to write vehicles to: ../../data/intermediate/test/freight_emission/outputs/output_allVehicles.xml.gz
2024-10-27T22:49:57,892  INFO HouseholdsWriterV10:66 about to write  households to: ../../data/intermediate/test/freight_emission/outputs/output_households.xml.gz
2024-10-27T22:49:57,892  INFO Counter:75 [HouseholdsWriter] wrote household # 0
2024-10-27T22:49:57,898  INFO CountsWriterV2:45 Write Counts to ../../data/intermediate/test/freight_emission/outputs/output_counts.xml.gz
2024-10-27T22:49:57,919  INFO ControlerListenerManagerImpl:135 calling notifyShutdown on org.matsim.analysis.ScoreStatsControlerListener with priority 0.0
2024-10-27T22:49:57,920  INFO ControlerListenerManagerImpl:135 calling notifyShutdown on org.matsim.analysis.IterationTravelStatsControlerListener with priority 0.0
2024-10-27T22:49:57,920  INFO PersonWriter:36 Writing all Persons to personscsv
2024-10-27T22:49:57,921  INFO PersonWriter:54 ...done
2024-10-27T22:49:57,921  INFO ControlerListenerManagerImpl:135 calling notifyShutdown on org.matsim.analysis.LinkStatsControlerListener with priority 0.0
2024-10-27T22:49:58,783  INFO ControlerListenerManagerImpl:135 calling notifyShutdown on org.matsim.freight.carriers.controler.CarrierModule$$Lambda/0x000001f19d39f918 with priority 0.0
2024-10-27T22:49:58,783  INFO CarrierPlanXmlWriterV2_1:84 write carrier plans
2024-10-27T22:49:58,803  INFO CarrierPlanXmlWriterV2_1:99 done
2024-10-27T22:49:58,804  INFO MatsimVehicleWriter:49 about to write vehicles to: ../../data/intermediate/test/freight_emission/outputs/output_carriersVehicleTypes.xml.gz
2024-10-27T22:49:58,804  INFO VehicleWriterV2:64 about to write vehicles to: ../../data/intermediate/test/freight_emission/outputs/output_carriersVehicleTypes.xml.gz
2024-10-27T22:49:58,805  INFO ControlerListenerManagerImpl:135 calling notifyShutdown on org.matsim.freight.carriers.usecases.analysis.CarrierScoreStats with priority 0.0
2024-10-27T22:49:58,805  INFO ControlerListenerManagerImpl:138 all ControlerShutdownListeners called.
2024-10-27T22:49:58,805  INFO MatsimRuntimeModifications:103 S H U T D O W N   ---   shutdown completed.
2024-10-27T22:49:58,805  INFO OutputDirectoryLogging:172 closing the logfile, i.e. messages sent to the logger after this message are not written to the logfile.
